39
Coordinates from ORCA-job reaction4-IEIP_ts_guess_scan_5-4_orca E -1288.399281610353
  Ir      0.598930     -0.711495      0.430439
  C       0.052144     -2.798445      0.330291
  C       0.126065     -2.346547      1.697290
  C       2.214277     -2.116745      0.750795
  C       1.318822     -2.634230     -0.259274
  C       1.488547     -1.976288      1.947811
  N      -1.053466      0.169274     -0.526057
  C      -2.320460      0.488855      0.149764
  C      -3.129904      1.565984     -0.554328
  H      -3.955746      1.863379      0.090514
  H      -3.575328      1.221895     -1.489172
  H      -2.536844      2.459067     -0.753570
  C      -3.130064     -0.787349      0.344964
  H      -2.023166      0.865838      1.129632
  H      -4.039713     -0.561193      0.899206
  H      -3.422291     -1.221685     -0.611994
  H      -2.582335     -1.536887      0.914394
  C      -0.859882      0.378467     -1.768997
  C       0.491401      0.151296     -2.227504
  H      -1.639630      0.740145     -2.433003
  C       1.578064      0.447636     -1.410578
  C       2.792580      0.036864     -2.033927
  S       0.941863     -0.576091     -3.700725
  C       2.601147     -0.523443     -3.257679
  H       1.508614      1.345492     -0.644738
  H       3.771439      0.202623     -1.607771
  H       3.348592     -0.889849     -3.945162
  H      -0.833510     -3.166369     -0.167621
  H      -0.665816     -2.380809      2.430914
  H       1.869645     -1.576690      2.876668
  O       1.313213      2.471302      0.236288
  O       0.539357      0.922455      1.642352
  C       0.912542      2.122024      1.344276
  C       0.859001      3.095025      2.488885
  H       0.815175      4.117159      2.122890
  H       1.767301      2.992465      3.085972
  H       0.016102      2.897893      3.148048
  H       3.260514     -1.888039      0.612870
  H       1.582193     -2.863795     -1.281423
39
Coordinates from ORCA-job reaction4-IEIP_ts_guess_scan_5-4_orca E -1288.398931251410
  Ir      0.604877     -0.703666      0.425903
  C       0.064426     -2.792992      0.312261
  C       0.132718     -2.350773      1.682503
  C       2.223050     -2.106968      0.743742
  C       1.332493     -2.620925     -0.272356
  C       1.492791     -1.976558      1.939347
  N      -1.054001      0.177292     -0.526650
  C      -2.319072      0.498190      0.150939
  C      -3.131112      1.570505     -0.557394
  H      -3.956261      1.870360      0.087183
  H      -3.577465      1.220687     -1.489689
  H      -2.539469      2.463210     -0.762519
  C      -3.125855     -0.778455      0.354373
  H      -2.019736      0.880302      1.128198
  H      -4.034390     -0.551303      0.910017
  H      -3.419862     -1.217866     -0.599708
  H      -2.574997     -1.524200      0.925836
  C      -0.864760      0.378686     -1.772687
  C       0.485233      0.143515     -2.231507
  H      -1.646754      0.733060     -2.437960
  C       1.571488      0.457855     -1.420219
  C       2.784627      0.027349     -2.034444
  S       0.933120     -0.622266     -3.685605
  C       2.591904     -0.566071     -3.241925
  H       1.509361      1.401003     -0.700641
  H       3.764424      0.206607     -1.616069
  H       3.338619     -0.950796     -3.920031
  H      -0.818413     -3.160812     -0.190667
  H      -0.661042     -2.393319      2.413583
  H       1.869540     -1.581869      2.872052
  O       1.338503      2.461199      0.263012
  O       0.531657      0.920112      1.652715
  C       0.915534      2.117227      1.364807
  C       0.845198      3.091590      2.507168
  H       0.813369      4.113664      2.139650
  H       1.741554      2.985052      3.121304
  H      -0.010986      2.899125      3.150269
  H       3.269093     -1.874770      0.610843
  H       1.599966     -2.843788     -1.294892
39
Coordinates from ORCA-job reaction4-IEIP_ts_guess_scan_5-4_orca E -1288.399434465015
  Ir      0.604415     -0.714929      0.435223
  C       0.052146     -2.803119      0.338168
  C       0.121567     -2.352031      1.705262
  C       2.214089     -2.125165      0.766209
  C       1.321808     -2.642193     -0.246693
  C       1.482982     -1.982273      1.960157
  N      -1.049372      0.169677     -0.523556
  C      -2.315384      0.489161      0.151952
  C      -3.122127      1.567635     -0.553042
  H      -3.949167      1.865634      0.089958
  H      -3.565396      1.224362     -1.489255
  H      -2.527538      2.460115     -0.750522
  C      -3.125282     -0.787152      0.344526
  H      -2.018265      0.864245      1.132592
  H      -4.034992     -0.561879      0.898995
  H      -3.417305     -1.219656     -0.613311
  H      -2.577358     -1.537660      0.912611
  C      -0.857266      0.385728     -1.768003
  C       0.493056      0.159973     -2.235314
  H      -1.638322      0.754670     -2.426388
  C       1.582919      0.433561     -1.412785
  C       2.793256      0.028960     -2.051294
  S       0.934353     -0.550583     -3.719005
  C       2.595447     -0.510989     -3.282271
  H       1.529017      1.348787     -0.652405
  H       3.774966      0.188000     -1.629232
  H       3.338950     -0.867149     -3.979215
  H      -0.832136     -3.170194     -0.162760
  H      -0.672799     -2.385698      2.436086
  H       1.860890     -1.582813      2.890349
  O       1.301489      2.462309      0.236491
  O       0.537154      0.920443      1.650535
  C       0.907052      2.118527      1.349397
  C       0.847251      3.099319      2.486642
  H       0.796906      4.118646      2.113564
  H       1.756150      3.006734      3.084330
  H       0.005531      2.901230      3.146834
  H       3.261606     -1.900159      0.632976
  H       1.589078     -2.874884     -1.267066
39
Coordinates from ORCA-job reaction4-IEIP_ts_guess_scan_5-4_orca E -1288.399309798464
  Ir      0.600566     -0.716501      0.435447
  C       0.042996     -2.803480      0.353044
  C       0.112099     -2.343313      1.716754
  C       2.206032     -2.127759      0.778242
  C       1.313580     -2.650028     -0.231602
  C       1.473785     -1.974661      1.970281
  N      -1.051768      0.161259     -0.530086
  C      -2.318146      0.481171      0.145755
  C      -3.129009      1.555931     -0.560359
  H      -3.955370      1.853803      0.083595
  H      -3.573713      1.209097     -1.494531
  H      -2.536909      2.449226     -0.761524
  C      -3.125750     -0.795848      0.343907
  H      -2.020517      0.859838      1.124859
  H      -4.034935     -0.570363      0.899204
  H      -3.418610     -1.231954     -0.612034
  H      -2.575561     -1.543501      0.913416
  C      -0.863023      0.373176     -1.775265
  C       0.487435      0.159623     -2.244975
  H      -1.646140      0.741095     -2.431523
  C       1.573190      0.429178     -1.417403
  C       2.788716      0.046767     -2.059098
  S       0.937006     -0.519037     -3.740447
  C       2.597569     -0.472511     -3.300276
  H       1.503360      1.326013     -0.639104
  H       3.767986      0.203743     -1.630499
  H       3.345140     -0.811468     -4.001473
  H      -0.841681     -3.171788     -0.146268
  H      -0.683149     -2.369793      2.446891
  H       1.851551     -1.569328      2.897995
  O       1.392238      2.452615      0.255466
  O       0.536623      0.927089      1.640212
  C       0.939957      2.117470      1.349454
  C       0.865946      3.098424      2.485499
  H       0.855987      4.119003      2.112703
  H       1.750181      2.981273      3.115079
  H      -0.003818      2.921999      3.114792
  H       3.254333     -1.906443      0.644607
  H       1.581193     -2.890825     -1.249994
39
Coordinates from ORCA-job reaction4-IEIP_ts_guess_scan_5-4_orca E -1288.399494542854
  Ir      0.602492     -0.713440      0.435532
  C       0.046775     -2.800504      0.346223
  C       0.114227     -2.345036      1.711474
  C       2.208736     -2.124376      0.775286
  C       1.317720     -2.643877     -0.237134
  C       1.475173     -1.975694      1.967186
  N      -1.048305      0.166703     -0.525975
  C      -2.316299      0.481243      0.149738
  C      -3.127148      1.559979     -0.550352
  H      -3.954604      1.852918      0.094454
  H      -3.570389      1.218939     -1.487338
  H      -2.535591      2.455109     -0.744863
  C      -3.123649     -0.797415      0.338489
  H      -2.020626      0.853802      1.131795
  H      -4.033858     -0.575953      0.893745
  H      -3.414740     -1.227568     -0.620687
  H      -2.574016     -1.548372      0.904084
  C      -0.857435      0.385497     -1.769757
  C       0.491607      0.166775     -2.241115
  H      -1.640383      0.754098     -2.425790
  C       1.580808      0.430282     -1.415530
  C       2.791456      0.027672     -2.053672
  S       0.934837     -0.514532     -3.737081
  C       2.594715     -0.493977     -3.292912
  H       1.526355      1.340669     -0.649265
  H       3.772296      0.172855     -1.624521
  H       3.338405     -0.846587     -3.991460
  H      -0.837139     -3.167906     -0.155088
  H      -0.681632     -2.374607      2.440808
  H       1.851768     -1.572950      2.896501
  O       1.340103      2.460544      0.241257
  O       0.536341      0.925664      1.644380
  C       0.920085      2.120168      1.346500
  C       0.858320      3.101121      2.483260
  H       0.825930      4.121168      2.110290
  H       1.758100      2.996557      3.092678
  H       0.005511      2.913270      3.132161
  H       3.257036     -1.901951      0.643519
  H       1.586386     -2.881095     -1.256079
39
Coordinates from ORCA-job reaction4-IEIP_ts_guess_scan_5-4_orca E -1288.399490682072
  Ir      0.603031     -0.715001      0.439878
  C       0.048422     -2.802468      0.349269
  C       0.112391     -2.347450      1.714822
  C       2.209142     -2.125764      0.783527
  C       1.320719     -2.645200     -0.231263
  C       1.472547     -1.977396      1.973663
  N      -1.047764      0.166014     -0.524270
  C      -2.316232      0.480471      0.150378
  C      -3.123955      1.562101     -0.548735
  H      -3.951964      1.854991      0.095356
  H      -3.566156      1.223895     -1.487252
  H      -2.530562      2.456657     -0.740275
  C      -3.126265     -0.797171      0.334658
  H      -2.021606      0.850402      1.133760
  H      -4.037225     -0.575212      0.888442
  H      -3.416132     -1.224712     -0.626058
  H      -2.579308     -1.550376      0.899786
  C      -0.856914      0.385488     -1.768233
  C       0.490898      0.164334     -2.241451
  H      -1.640798      0.752708     -2.424120
  C       1.581889      0.421291     -1.415468
  C       2.791279      0.028334     -2.061900
  S       0.929349     -0.522136     -3.736370
  C       2.591867     -0.483280     -3.304931
  H       1.531363      1.335277     -0.650575
  H       3.773421      0.177537     -1.637246
  H       3.334367     -0.823946     -4.010616
  H      -0.834075     -3.170200     -0.154295
  H      -0.685192     -2.377486      2.442247
  H       1.846840     -1.574659      2.903913
  O       1.345081      2.452663      0.243061
  O       0.534540      0.924988      1.648165
  C       0.926529      2.116216      1.350100
  C       0.857692      3.102997      2.481473
  H       0.825914      4.121169      2.103335
  H       1.754630      3.002445      3.095697
  H       0.001969      2.917356      3.127190
  H       3.257783     -1.903373      0.654643
  H       1.591852     -2.882312     -1.249565
39
Coordinates from ORCA-job reaction4-IEIP_ts_guess_scan_5-4_orca E -1288.399520195552
  Ir      0.602970     -0.715051      0.439579
  C       0.048264     -2.802352      0.350057
  C       0.111145     -2.346556      1.715292
  C       2.208678     -2.125505      0.785451
  C       1.321005     -2.645573     -0.229640
  C       1.471031     -1.976279      1.974870
  N      -1.047577      0.164681     -0.525461
  C      -2.316118      0.478450      0.149774
  C      -3.124405      1.560907     -0.547491
  H      -3.952050      1.852883      0.097492
  H      -3.567235      1.223863     -1.486114
  H      -2.531241      2.455766     -0.738267
  C      -3.126233     -0.799352      0.332797
  H      -2.021358      0.847254      1.133542
  H      -4.037097     -0.577936      0.886966
  H      -3.416268     -1.225829     -0.628340
  H      -2.579256     -1.553219      0.896995
  C      -0.857809      0.384152     -1.769454
  C       0.489867      0.166779     -2.243390
  H      -1.642471      0.751088     -2.424520
  C       1.579722      0.422546     -1.416077
  C       2.790022      0.028785     -2.059829
  S       0.931185     -0.508214     -3.742440
  C       2.592115     -0.482455     -3.303424
  H       1.527442      1.335298     -0.649970
  H       3.771340      0.173162     -1.631595
  H       3.335335     -0.826049     -4.006935
  H      -0.833833     -3.170323     -0.154040
  H      -0.687069     -2.375951      2.442045
  H       1.844597     -1.572862      2.905121
  O       1.343220      2.455642      0.240383
  O       0.534926      0.926339      1.646400
  C       0.923018      2.118535      1.346784
  C       0.861977      3.103306      2.480313
  H       0.830984      4.122243      2.104242
  H       1.761463      2.999429      3.090290
  H       0.008749      2.918435      3.129536
  H       3.257498     -1.903426      0.657380
  H       1.592837     -2.883421     -1.247580
39
Coordinates from ORCA-job reaction4-IEIP_ts_guess_scan_5-4_orca E -1288.399526676833
  Ir      0.602119     -0.714649      0.440973
  C       0.049113     -2.802142      0.350830
  C       0.109314     -2.346261      1.716091
  C       2.208344     -2.123691      0.789712
  C       1.322724     -2.644486     -0.226798
  C       1.468440     -1.974849      1.977831
  N      -1.047414      0.163352     -0.525125
  C      -2.316269      0.475799      0.150335
  C      -3.123771      1.560796     -0.543995
  H      -3.951273      1.851468      0.101768
  H      -3.566802      1.226753     -1.483581
  H      -2.529983      2.455778     -0.732198
  C      -3.127190     -0.802106      0.329128
  H      -2.021949      0.841616      1.135330
  H      -4.038328     -0.581795      0.883293
  H      -3.416764     -1.225668     -0.633434
  H      -2.581022     -1.557957      0.891497
  C      -0.858409      0.383385     -1.769170
  C       0.488703      0.168109     -2.244790
  H      -1.644176      0.749432     -2.423409
  C       1.578975      0.419502     -1.416737
  C       2.788938      0.026274     -2.060921
  S       0.930130     -0.497413     -3.747879
  C       2.590596     -0.479019     -3.307054
  H       1.528071      1.331267     -0.648712
  H       3.770213      0.165842     -1.631033
  H       3.333458     -0.821373     -4.011554
  H      -0.831803     -3.170778     -0.154862
  H      -0.690201     -2.375946      2.441393
  H       1.840162     -1.570972      2.908627
  O       1.350046      2.453682      0.240292
  O       0.533595      0.927986      1.645841
  C       0.926778      2.118392      1.346189
  C       0.864291      3.105186      2.477882
  H       0.835950      4.123562      2.100112
  H       1.762041      3.000765      3.090322
  H       0.009090      2.922716      3.125193
  H       3.257302     -1.901108      0.663630
  H       1.596330     -2.882258     -1.244277
39
Coordinates from ORCA-job reaction4-IEIP_ts_guess_scan_5-4_orca E -1288.399533959582
  Ir      0.601032     -0.714689      0.444652
  C       0.050266     -2.802502      0.353513
  C       0.104269     -2.346147      1.718753
  C       2.207173     -2.121928      0.801008
  C       1.326156     -2.643958     -0.218908
  C       1.461855     -1.973105      1.985839
  N      -1.046852      0.160690     -0.524676
  C      -2.316595      0.470426      0.150797
  C      -3.121989      1.560842     -0.537683
  H      -3.949441      1.848917      0.109324
  H      -3.565044      1.233141     -1.479459
  H      -2.526634      2.455926     -0.720249
  C      -3.129359     -0.807628      0.320203
  H      -2.023592      0.829841      1.138498
  H      -4.041270     -0.589709      0.874061
  H      -3.417619     -1.224889     -0.645496
  H      -2.585096     -1.567722      0.878735
  C      -0.859592      0.380875     -1.769114
  C       0.486235      0.169327     -2.247656
  H      -1.647772      0.744010     -2.422072
  C       1.576665      0.412980     -1.417642
  C       2.786614      0.024684     -2.063827
  S       0.928080     -0.482984     -3.756121
  C       2.588228     -0.468478     -3.315172
  H       1.527436      1.325500     -0.648642
  H       3.767772      0.159291     -1.632171
  H       3.331092     -0.804305     -4.022813
  H      -0.828033     -3.172183     -0.155979
  H      -0.698432     -2.375873      2.440514
  H       1.829345     -1.568313      2.917928
  O       1.353376      2.451301      0.236859
  O       0.531609      0.931105      1.645642
  C       0.927571      2.119589      1.343102
  C       0.872779      3.108445      2.473394
  H       0.847307      4.126339      2.094193
  H       1.772159      3.001295      3.083011
  H       0.019019      2.930258      3.123775
  H       3.256652     -1.899107      0.679771
  H       1.604003     -2.882068     -1.235150
39
Coordinates from ORCA-job reaction4-IEIP_ts_guess_scan_5-4_orca E -1288.399536764368
  Ir      0.601508     -0.715122      0.446130
  C       0.051584     -2.803327      0.354408
  C       0.103040     -2.346697      1.719695
  C       2.207592     -2.121945      0.805715
  C       1.328437     -2.644417     -0.215651
  C       1.460061     -1.973187      1.989156
  N      -1.046847      0.159823     -0.524201
  C      -2.316789      0.468559      0.151427
  C      -3.120234      1.562224     -0.534202
  H      -3.947614      1.849571      0.113221
  H      -3.563219      1.238010     -1.477205
  H      -2.523343      2.456871     -0.713789
  C      -3.130971     -0.809287      0.315659
  H      -2.024321      0.824346      1.140578
  H      -4.043140     -0.592495      0.869547
  H      -3.418819     -1.222873     -0.651745
  H      -2.587856     -1.571915      0.871829
  C      -0.860521      0.380027     -1.768932
  C       0.484847      0.169382     -2.248572
  H      -1.649713      0.742116     -2.421277
  C       1.575545      0.410678     -1.418128
  C       2.785317      0.025001     -2.065998
  S       0.926342     -0.479791     -3.758559
  C       2.586378     -0.466233     -3.318107
  H       1.527245      1.323831     -0.649165
  H       3.766707      0.159450     -1.634852
  H       3.329032     -0.800183     -4.026856
  H      -0.825584     -3.173505     -0.156662
  H      -0.700976     -2.376533      2.439993
  H       1.825793     -1.568186      2.921850
  O       1.355438      2.450307      0.235917
  O       0.532094      0.932154      1.645817
  C       0.930153      2.119733      1.342708
  C       0.874327      3.110177      2.471548
  H       0.848082      4.127516      2.090897
  H       1.773767      3.004592      3.081343
  H       0.020660      2.932217      3.122098
  H       3.257289     -1.899110      0.686499
  H       1.608081     -2.882588     -1.231391
39
Coordinates from ORCA-job reaction4-IEIP_ts_guess_scan_5-4_orca E -1288.399538019789
  Ir      0.601616     -0.714880      0.446581
  C       0.053083     -2.803538      0.353518
  C       0.102417     -2.347008      1.718984
  C       2.208122     -2.120837      0.808042
  C       1.330608     -2.643648     -0.214570
  C       1.458865     -1.972889      1.990491
  N      -1.046820      0.159354     -0.523428
  C      -2.316689      0.467763      0.152521
  C      -3.118500      1.563995     -0.530950
  H      -3.945596      1.851236      0.116883
  H      -3.561720      1.242322     -1.474699
  H      -2.520125      2.458016     -0.708631
  C      -3.132051     -0.809790      0.313207
  H      -2.024306      0.820808      1.142664
  H      -4.044117     -0.593819      0.867600
  H      -3.420108     -1.220527     -0.655349
  H      -2.589528     -1.574397      0.867240
  C      -0.861070      0.378995     -1.768379
  C       0.484153      0.168204     -2.248467
  H      -1.650747      0.740484     -2.420474
  C       1.575315      0.409709     -1.418584
  C       2.784794      0.024245     -2.067120
  S       0.925077     -0.481781     -3.758421
  C       2.585296     -0.466613     -3.319300
  H       1.527658      1.322894     -0.649605
  H       3.766452      0.159256     -1.636757
  H       3.327699     -0.800108     -4.028534
  H      -0.823077     -3.174287     -0.158846
  H      -0.702599     -2.377464      2.438146
  H       1.823053     -1.567946      2.923814
  O       1.356231      2.449634      0.235214
  O       0.531959      0.932495      1.645460
  C       0.930671      2.119814      1.342073
  C       0.873738      3.110936      2.470253
  H       0.846535      4.127991      2.088881
  H       1.773274      3.006675      3.080127
  H       0.020201      2.932599      3.120851
  H       3.257869     -1.897459      0.690349
  H       1.611736     -2.881244     -1.230045
