! Opt PBEh-3c pal8
%geom Constraints
{ B 0 20 2.3857142857 C }
{ B 24 30 1.442857142 C }
    end
 trust -0.1
end
%output 
xyzfile=True 
end 
%scf 
maxiter 250 
end
%output
Print[P_Hirshfeld] = 1
end
% maxcore
4000
*xyz 1 1
Ir   0.59851283  -0.71595280   0.44521686 
C    0.04864922  -2.80206733   0.34444207 
C    0.11464086  -2.34839713   1.71122893 
C    2.20921656  -2.12362819   0.77781372 
C    1.31931809  -2.64093042  -0.23721764 
C    1.47612542  -1.98021311   1.96994308 
N   -1.04646699   0.16661748  -0.52324360 
C   -2.31514699   0.48689848   0.14906226 
C   -3.12194308   1.56461763  -0.55715207 
H   -3.94940224   1.86244366   0.08540846 
H   -3.56495660   1.22092424  -1.49328275 
H   -2.52777662   2.45735787  -0.75461480 
C   -3.12608233  -0.78882787   0.34182542 
H   -2.02036810   0.86357271   1.12980475 
H   -4.03713692  -0.56217799   0.89354330 
H   -3.41589360  -1.22286118  -0.61600052 
H   -2.58041833  -1.53877746   0.91268862 
C   -0.85382120   0.37779259  -1.76766693 
C    0.49470154   0.15652162  -2.23989882 
H   -1.63771631   0.73902320  -2.42698751 
C    1.59103752   0.45503683  -1.43670695 
C    2.79892813   0.04937664  -2.07576871 
S    0.92981197  -0.56633179  -3.72000793 
C    2.59412669  -0.50931397  -3.29782724 
H    1.52851039   1.35150840  -0.66852939 
H    3.78239307   0.21767882  -1.66158195 
H    3.33400288  -0.87198152  -3.99528249 
H   -0.83444206  -3.16911143  -0.15860974 
H   -0.68195604  -2.38023081   2.43980338 
H    1.85199144  -1.58000033   2.90064859 
O    1.31991000   2.46355714   0.24967472 
O    0.53414093   0.91974698   1.65433568 
C    0.91163913   2.11783817   1.35601664 
C    0.85304586   3.09359892   2.49800775 
H    0.81365563   4.11496420   2.12940868 
H    1.75738126   2.99053422   3.10095469 
H    0.00567257   2.89975734   3.15234971 
H    3.25669900  -1.89697921   0.64626708 
H    1.58878644  -2.87239460  -1.25732535 
*
