! EnGrad PBEh-3c
%output 
xyzfile=True 
end 
%scf 
maxiter 250 
end
%output
Print[P_Hirshfeld] = 1
end
% maxcore
4000
*xyz 1 1
Sc   1.72901633  -1.27554680  -1.47375057 
C    0.34522816  -0.59461076   0.20832439 
N   -0.48486918  -1.36626547   0.92707751 
C   -0.80133804  -0.75832621   2.10384830 
C   -0.14988706   0.42280978   2.11701635 
N    0.57074596   0.49572901   0.96508764 
C    1.43556221   1.60420570   0.63628373 
H    1.58060597   2.32629127   1.43747556 
H    1.00094655   2.16399898  -0.18738814 
H    2.43124386   1.27366235   0.34898874 
C   -0.99298459  -2.67090013   0.55607808 
H   -0.58426854  -2.97822879  -0.40339257 
H   -2.07702941  -2.63633257   0.47481105 
H   -0.70778531  -3.41190309   1.29992773 
H   -1.44865388  -1.20123936   2.84057735 
H   -0.15855891   1.17968703   2.88131174 
C   -0.29109112   1.64776617  -2.86704587 
H   -1.04461820   1.70537382  -3.66069222 
H    0.24735774   2.59865448  -2.95401713 
H   -0.83962067   1.61370706  -1.92273365 
H    0.24002214  -0.13852049  -3.32779401 
*
