! EnGrad PBEh-3c
%output 
xyzfile=True 
end 
%scf 
maxiter 250 
end
%output
Print[P_Hirshfeld] = 1
end
% maxcore
4000
*xyz 1 1
Sc   1.70370449  -1.25522176  -1.49015466 
C    0.39624896  -0.61515852   0.18863015 
N   -0.48640632  -1.35773348   0.92356237 
C   -0.81208477  -0.75729871   2.11411268 
C   -0.15686094   0.42191662   2.14583844 
N    0.55679458   0.50030868   0.98627936 
C    1.44178710   1.62939951   0.59885563 
H    1.56545170   2.30672441   1.45408541 
H    1.00452255   2.16489877  -0.19540210 
H    2.43210210   1.26234944   0.34632526 
C   -0.99506774  -2.67479145   0.55183861 
H   -0.58482295  -2.97470603  -0.40454322 
H   -2.07700673  -2.63819192   0.47370418 
H   -0.70847570  -3.41056848   1.30199528 
H   -1.45198261  -1.20069277   2.83969772 
H   -0.15288251   1.18555882   2.87841945 
C   -0.35926708   1.58178855  -2.91682800 
H   -1.03108979   1.67993465  -3.65458972 
H    0.30336116   2.54839439  -2.95273465 
H   -0.81589267   1.58419687  -1.92458407 
H    0.22887509   0.02040679  -3.26629394 
*
