! EnGrad PBEh-3c
%output 
xyzfile=True 
end 
%scf 
maxiter 250 
end
%output
Print[P_Hirshfeld] = 1
end
% maxcore
4000
*xyz 1 1
Sc   1.66020686  -1.20837725  -1.54161313 
C    0.40917357  -0.60506248   0.24433838 
N   -0.47411517  -1.35650785   0.91400922 
C   -0.81161004  -0.76206435   2.10345860 
C   -0.15089059   0.41507681   2.14626998 
N    0.57349093   0.50472698   0.97199646 
C    1.43532511   1.62205626   0.62021303 
H    1.53978729   2.28878990   1.46386278 
H    0.99878670   2.18397178  -0.23187519 
H    2.43247813   1.25432842   0.34947668 
C   -0.98999664  -2.66899747   0.55491448 
H   -0.58559559  -2.96982099  -0.41057201 
H   -2.07723800  -2.64269468   0.47642320 
H   -0.70359153  -3.40871897   1.30202303 
H   -1.46081825  -1.21119469   2.84735587 
H   -0.14408052   1.20134591   2.89572965 
C   -0.29438077   1.49536385  -2.91400628 
H   -1.08056035   1.66677199  -3.72490984 
H    0.36381521   2.40047799  -2.96028993 
H   -0.79077396   1.53951334  -1.93687076 
H    0.15354543   0.26463289  -3.17369845 
*
