! EnGrad PBEh-3c
%output 
xyzfile=True 
end 
%scf 
maxiter 250 
end
%output
Print[P_Hirshfeld] = 1
end
% maxcore
4000
*xyz 1 1
Sc   1.65104569  -1.20157288  -1.55007767 
C    0.40819699  -0.60489404   0.23832032 
N   -0.47546009  -1.35841585   0.92017504 
C   -0.81089700  -0.76143187   2.10559979 
C   -0.14815373   0.41893917   2.14524711 
N    0.57296780   0.50483886   0.98040856 
C    1.43326155   1.62188334   0.61541855 
H    1.53652267   2.29274091   1.46411900 
H    1.00301844   2.17919336  -0.22792939 
H    2.43161450   1.25745746   0.35413825 
C   -0.98788230  -2.66822452   0.55296765 
H   -0.58573062  -2.96863238  -0.41094445 
H   -2.07494925  -2.64254134   0.47753712 
H   -0.70112942  -3.40855321   1.30080873 
H   -1.46016565  -1.21121495   2.84493886 
H   -0.14370791   1.19760550   2.89598702 
C   -0.29755704   1.49320254  -2.92476030 
H   -1.06765009   1.66722137  -3.71625208 
H    0.36587264   2.39224085  -2.95944133 
H   -0.79484108   1.54223065  -1.93830871 
H    0.14871135   0.26157417  -3.17134096 
*
