! EnGrad PBEh-3c
%output 
xyzfile=True 
end 
%scf 
maxiter 250 
end
%output
Print[P_Hirshfeld] = 1
end
% maxcore
4000
*xyz 1 1
Sc   1.60418830  -1.16349776  -1.59387313 
C    0.41085214  -0.60457984   0.23673904 
N   -0.47226676  -1.35897226   0.93215947 
C   -0.80820994  -0.75807544   2.11243511 
C   -0.14307629   0.42427530   2.14909327 
N    0.57651557   0.50447917   0.99671956 
C    1.42785475   1.62330932   0.60988927 
H    1.51660318   2.29973987   1.46560980 
H    1.01469096   2.16803709  -0.22834182 
H    2.42977984   1.26415803   0.37177594 
C   -0.98107128  -2.66641558   0.54998795 
H   -0.58569626  -2.96198945  -0.41536836 
H   -2.06762142  -2.64328856   0.48148112 
H   -0.69118139  -3.40703645   1.29477961 
H   -1.46086578  -1.21310645   2.83892406 
H   -0.13882159   1.19053275   2.90226824 
C   -0.30248248   1.45315618  -2.95072880 
H   -1.03408001   1.65966728  -3.70774032 
H    0.39609703   2.33233258  -2.95870298 
H   -0.79738946   1.53878071  -1.95360692 
H    0.11015616   0.32304644  -3.13627903 
*
