! EnGrad PBEh-3c
%output 
xyzfile=True 
end 
%scf 
maxiter 250 
end
%output
Print[P_Hirshfeld] = 1
end
% maxcore
4000
*xyz 1 1
Sc   1.55574844  -1.12737090  -1.63673952 
C    0.40717347  -0.60314143   0.24118075 
N   -0.46590969  -1.35848688   0.94102243 
C   -0.80343539  -0.75293281   2.11792416 
C   -0.14117338   0.42601257   2.15300113 
N    0.58404117   0.50058452   1.00224616 
C    1.42553618   1.62207001   0.61832451 
H    1.49730584   2.30870263   1.46083710 
H    1.02480716   2.15585039  -0.23282931 
H    2.42926503   1.27144268   0.39068920 
C   -0.97537867  -2.66384401   0.54931525 
H   -0.58447732  -2.95411537  -0.42131109 
H   -2.06002714  -2.64314554   0.48434970 
H   -0.68045679  -3.40608154   1.28667541 
H   -1.46357068  -1.21341446   2.83239187 
H   -0.13406249   1.18444582   2.90989331 
C   -0.29376029   1.42762394  -2.94627950 
H   -1.00777780   1.64730032  -3.71017208 
H    0.41577235   2.27715680  -2.95829749 
H   -0.80467272   1.53770846  -1.97530212 
H    0.07970793   0.36939870  -3.10882765 
*
