! EnGrad PBEh-3c
%output 
xyzfile=True 
end 
%scf 
maxiter 250 
end
%output
Print[P_Hirshfeld] = 1
end
% maxcore
4000
*xyz 1 1
Sc   1.45833867  -1.05322857  -1.72002387 
C    0.40601948  -0.60085751   0.24390809 
N   -0.45457353  -1.36197370   0.95311863 
C   -0.79994243  -0.75345660   2.12780534 
C   -0.13423380   0.42906514   2.15892199 
N    0.59383211   0.49527189   1.01381105 
C    1.42381073   1.61766448   0.63293195 
H    1.45872217   2.32837665   1.45597055 
H    1.04146191   2.13227817  -0.24350951 
H    2.43263217   1.28413868   0.42796441 
C   -0.96222316  -2.65495636   0.54765711 
H   -0.58099471  -2.93556124  -0.43138775 
H   -2.04836670  -2.64113485   0.49009971 
H   -0.65795764  -3.40797926   1.27235009 
H   -1.46991672  -1.21179187   2.82218865 
H   -0.12329457   1.17986863   2.92834817 
C   -0.28306640   1.40581162  -2.92200597 
H   -0.97168965   1.61488461  -3.73410287 
H    0.47243989   2.14181039  -2.96351125 
H   -0.82295527   1.52034432  -2.01065841 
H    0.02828632   0.48091135  -3.05063056 
*
