! EnGrad PBEh-3c
%output 
xyzfile=True 
end 
%scf 
maxiter 250 
end
%output
Print[P_Hirshfeld] = 1
end
% maxcore
4000
*xyz 1 1
Sc   1.44401720  -1.04883029  -1.72605032 
C    0.40029943  -0.60025119   0.24550342 
N   -0.44709231  -1.35518041   0.95073293 
C   -0.78822613  -0.74855598   2.12253980 
C   -0.13953867   0.41917435   2.16844510 
N    0.59497537   0.49108631   1.00528642 
C    1.42460939   1.62235869   0.64200025 
H    1.44789450   2.33828250   1.45206741 
H    1.04403677   2.12097704  -0.24165489 
H    2.43976960   1.28968837   0.44076759 
C   -0.96005292  -2.66005723   0.55041792 
H   -0.57610359  -2.92733307  -0.43250938 
H   -2.04302397  -2.63757436   0.49344484 
H   -0.64993071  -3.41030077   1.26646919 
H   -1.47686928  -1.21124335   2.82456641 
H   -0.11985244   1.17950127   2.93162519 
C   -0.36289172   1.53376102  -2.91929273 
H   -0.95814653   1.61312279  -3.73537191 
H    0.52358807   2.10649484  -2.96969840 
H   -0.84464896   1.51271062  -2.00519775 
H    0.05466191   0.38391607  -3.06463319 
*
