! EnGrad PBEh-3c
%output 
xyzfile=True 
end 
%scf 
maxiter 250 
end
%output
Print[P_Hirshfeld] = 1
end
% maxcore
4000
*xyz 0 1
C   -1.85783383   0.15201175  -0.17292283 
C   -1.62802803  -0.63915682  -1.28455317 
C   -0.89905444  -1.80761936  -1.16257456 
C   -0.35570471  -2.15713379   0.05980577 
C   -1.36344048  -0.24404560   1.05449859 
C   -0.55925502  -1.35933292   1.17129682 
H   -2.46870381   1.03528823  -0.30801934 
H   -2.06433221  -0.38331055  -2.23951069 
H   -0.78254270  -2.46175646  -2.01359890 
H   -0.09950674  -1.65372110   2.10602890 
H    0.21034181  -3.07337279   0.14575593 
Pd   1.40880041   1.21408666   0.01518787 
O    2.39450723   0.71964140  -1.69690409 
O    2.61624818  -0.43509109   0.10902865 
O    0.31834288   2.92446220  -0.06209244 
C    0.16077967   2.99186046   1.17587950 
O    0.71238094   2.11222911   1.89708079 
H   -1.72874118   0.53307957   2.29934422 
C    2.87887002  -0.27773514  -1.10838800 
H    3.57063923  -0.96190401  -1.61407914 
H   -0.46376520   3.77151024   1.62874013 
*
