! EnGrad PBEh-3c
%output 
xyzfile=True 
end 
%scf 
maxiter 250 
end
%output
Print[P_Hirshfeld] = 1
end
% maxcore
4000
*xyz 0 1
C   -1.79955531   0.19214031  -0.21954478 
C   -1.85814082  -0.75639585  -1.23585079 
C   -1.29319605  -2.00486725  -1.07989346 
C   -0.57810243  -2.27818991   0.06544801 
C   -1.16125362  -0.12517854   0.98565906 
C   -0.49249193  -1.34674755   1.09436270 
H   -2.23834988   1.17937668  -0.40278167 
H   -2.36275114  -0.50252162  -2.12799297 
H   -1.42405594  -2.76688699  -1.84038038 
H    0.10965414  -1.58404493   1.97523560 
H   -0.10123444  -3.21024696   0.19799779 
Pd   1.50814053   1.26706732   0.09443436 
O    2.71240620   0.99242495  -1.55006184 
O    2.61101172  -0.42895684   0.06610991 
O    0.39100399   2.90605448  -0.02420733 
C    0.11728766   2.94462001   1.21246353 
O    0.60047265   2.06453031   1.96031739 
H   -1.24873679   0.45396251   1.78404169 
C    3.11222749  -0.08135884  -1.03321531 
H    3.91340545  -0.66671576  -1.50619809 
H   -0.52504111   3.75298610   1.58666150 
*
