! EnGrad PBEh-3c
%output 
xyzfile=True 
end 
%scf 
maxiter 250 
end
%output
Print[P_Hirshfeld] = 1
end
% maxcore
4000
*xyz 0 1
C   -1.78800467   0.19402888  -0.23936103 
C   -1.88710650  -0.77078598  -1.22731493 
C   -1.34873544  -2.03031387  -1.06585071 
C   -0.60932237  -2.29259173   0.06742288 
C   -1.13268785  -0.15398056   0.92057186 
C   -0.47794742  -1.35382917   1.07526385 
H   -2.20323547   1.18891739  -0.41039734 
H   -2.41135391  -0.51408037  -2.12525201 
H   -1.50697655  -2.79282049  -1.80237037 
H    0.12896853  -1.57160001   1.95405370 
H   -0.13491446  -3.24178197   0.20816805 
Pd   1.51244297   1.26748976   0.09764000 
O    2.75330841   1.03032377  -1.52449954 
O    2.61768478  -0.42553520   0.05749513 
O    0.40541919   2.90790803  -0.01959193 
C    0.11819750   2.93586675   1.21993180 
O    0.58367332   2.06339575   1.96849126 
H   -1.18831780   0.49599723   1.77759811 
C    3.14273591  -0.05473848  -1.02556904 
H    3.95309560  -0.62564141  -1.48638024 
H   -0.53572500   3.74886162   1.58283553 
*
