! EnGrad PBEh-3c
%output 
xyzfile=True 
end 
%scf 
maxiter 250 
end
%output
Print[P_Hirshfeld] = 1
end
% maxcore
4000
*xyz 0 1
C   -1.77716710   0.19366934  -0.27398311 
C   -1.92643630  -0.78142128  -1.22728768 
C   -1.41175792  -2.05435455  -1.04391164 
C   -0.63832648  -2.31841193   0.07396308 
C   -1.10230690  -0.14599285   0.89890840 
C   -0.45854471  -1.37193819   1.04938772 
H   -2.16044519   1.19574561  -0.42080673 
H   -2.46703202  -0.53058320  -2.12082330 
H   -1.60500950  -2.82915037  -1.76420817 
H    0.15032657  -1.55758296   1.92480419 
H   -0.17676878  -3.27758373   0.21748149 
Pd   1.51337116   1.26625665   0.10485737 
O    2.80122975   1.07455240  -1.49615987 
O    2.62476961  -0.42177504   0.04374028 
O    0.42116755   2.90932533  -0.01141643 
C    0.11735521   2.93247317   1.22733515 
O    0.56599582   2.06157690   1.97993461 
H   -1.11559915   0.52518335   1.74350712 
C    3.18040709  -0.02108476  -1.01279781 
H    4.00130863  -0.58112811  -1.46564151 
H   -0.54713965   3.74216659   1.57667279 
*
