! EnGrad PBEh-3c
%output 
xyzfile=True 
end 
%scf 
maxiter 250 
end
%output
Print[P_Hirshfeld] = 1
end
% maxcore
4000
*xyz 0 1
C   -1.74773899   0.19237652  -0.30071540 
C   -1.99002752  -0.80549700  -1.23495642 
C   -1.51018647  -2.09088927  -1.00754035 
C   -0.68617572  -2.36679866   0.07670969 
C   -1.05032363  -0.14010004   0.85236522 
C   -0.44023909  -1.37376275   1.01412743 
H   -2.09414516   1.20783790  -0.44399386 
H   -2.55608474  -0.55931392  -2.11450078 
H   -1.76134333  -2.88628856  -1.70265658 
H    0.18792751  -1.54066734   1.87770536 
H   -0.24528080  -3.33548412   0.23021216 
Pd   1.51216148   1.26087419   0.11444166 
O    2.87852565   1.14481392  -1.44942790 
O    2.63539127  -0.41671098   0.01952853 
O    0.44461829   2.91052442   0.00745862 
C    0.11520247   2.93164740   1.23572864 
O    0.53935880   2.06081322   2.00203302 
H   -1.00108304   0.56967610   1.68822313 
C    3.24190151   0.03522723  -0.99154009 
H    4.07977144  -0.51273455  -1.43386791 
H   -0.56530512   3.73180995   1.56590788 
*
