! EnGrad PBEh-3c
%output 
xyzfile=True 
end 
%scf 
maxiter 250 
end
%output
Print[P_Hirshfeld] = 1
end
% maxcore
4000
*xyz 0 1
C   -1.85656051   0.15882030  -0.18216232 
C   -1.63941704  -0.65101364  -1.28968201 
C   -0.92338402  -1.82421000  -1.16271252 
C   -0.36526748  -2.16908673   0.05271950 
C   -1.36611374  -0.19272784   1.11414743 
C   -0.55064769  -1.36287717   1.16885357 
H   -2.45285182   1.04126362  -0.31534566 
H   -2.08503163  -0.39259532  -2.23841574 
H   -0.82440405  -2.48476058  -2.00631337 
H   -0.08542214  -1.64959089   2.09369346 
H    0.19118126  -3.08789440   0.14638624 
Pd   1.40985017   1.22206523   0.03647206 
O    2.41451958   0.73523602  -1.69246800 
O    2.61005932  -0.43538535   0.10460104 
O    0.32084786   2.92422991  -0.07420684 
C    0.16560347   2.97472742   1.19767516 
O    0.70142751   2.11765181   1.89108410 
H   -1.69290346   0.51227899   2.24560840 
C    2.90546827  -0.26590080  -1.10462542 
H    3.59305644  -0.94600975  -1.61048306 
H   -0.47007002   3.77446193   1.62530346 
*
