! EnGrad PBEh-3c
%output 
xyzfile=True 
end 
%scf 
maxiter 250 
end
%output
Print[P_Hirshfeld] = 1
end
% maxcore
4000
*xyz 0 1
C   -1.82067186   0.18984094  -0.13190015 
C   -1.72048138  -0.69877061  -1.26615671 
C   -1.08048513  -1.92803975  -1.15607634 
C   -0.44839938  -2.20272163   0.05004965 
C   -1.30881970  -0.07057577   1.19253599 
C   -0.55454277  -1.29458860   1.16844593 
H   -2.36050400   1.09645527  -0.37446819 
H   -2.21725035  -0.45040788  -2.22547770 
H   -1.09439551  -2.64069735  -1.96705716 
H    0.01502406  -1.63502005   2.02649256 
H    0.06871431  -3.17757568   0.15399001 
Pd   1.43422589   1.26069139   0.12353598 
O    2.55009741   0.83421105  -1.65063666 
O    2.58388997  -0.44009116   0.08074246 
O    0.33950899   2.91189145  -0.06286504 
C    0.13928904   2.96623453   1.20050840 
O    0.66956968   2.08162484   1.92409046 
H   -1.47940838   0.42777884   1.96940005 
C    3.03347519  -0.16818630  -1.07034201 
H    3.74649964  -0.84295766  -1.58627436 
H   -0.49699929   3.77373204   1.60287726 
*
