! EnGrad PBEh-3c
%output 
xyzfile=True 
end 
%scf 
maxiter 250 
end
%output
Print[P_Hirshfeld] = 1
end
% maxcore
4000
*xyz 0 1
C   -1.83471112   0.17787425  -0.15866440 
C   -1.68983059  -0.68446813  -1.28153180 
C   -1.02230733  -1.89023765  -1.15949747 
C   -0.41539647  -2.19540681   0.04599431 
C   -1.33912551  -0.08952111   1.20177694 
C   -0.54922997  -1.32611271   1.16569045 
H   -2.39412196   1.07496909  -0.35191711 
H   -2.16867830  -0.42945083  -2.23139031 
H   -0.99466135  -2.58218125  -1.98062642 
H   -0.02248409  -1.63968739   2.05063326 
H    0.11398498  -3.14539022   0.15057753 
Pd   1.42300806   1.24758502   0.09576945 
O    2.50003213   0.79681896  -1.66675175 
O    2.59223470  -0.43835542   0.08881014 
O    0.33231022   2.91710082  -0.07253896 
C    0.15196970   2.96387306   1.20660124 
O    0.67995699   2.09835806   1.90863149 
H   -1.55486816   0.44984127   2.05802681 
C    2.98981556  -0.20479929  -1.08420361 
H    3.68934034  -0.88162967  -1.59567373 
H   -0.48817468   3.77556044   1.61118541 
*
