! EnGrad PBEh-3c
%output 
xyzfile=True 
end 
%scf 
maxiter 250 
end
%output
Print[P_Hirshfeld] = 1
end
% maxcore
4000
*xyz 0 1
C   -1.82650205   0.18248461  -0.14425247 
C   -1.71339152  -0.68578897  -1.25939897 
C   -1.06211624  -1.90947790  -1.15015393 
C   -0.44055345  -2.19293127   0.06049959 
C   -1.30064860  -0.13690264   1.10874151 
C   -0.55205285  -1.30968730   1.16426238 
H   -2.37166294   1.09084631  -0.36392311 
H   -2.19808431  -0.44214288  -2.21873594 
H   -1.06096169  -2.62185548  -1.97210679 
H    0.00031674  -1.63445898   2.03657215 
H    0.08130756  -3.15819459   0.15539310 
Pd   1.43738712   1.25363901   0.10326514 
O    2.53210388   0.82494928  -1.65355968 
O    2.59092928  -0.43844962   0.08659451 
O    0.33748970   2.91426351  -0.05804356 
C    0.14904232   2.95821228   1.20405285 
O    0.66577735   2.09564523   1.91122960 
H   -1.51504628   0.46717906   2.04537979 
C    3.01068776  -0.18331729  -1.07435333 
H    3.72659946  -0.85195475  -1.58608940 
H   -0.49245867   3.77221838   1.60596686 
*
