! EnGrad PBEh-3c
%output 
xyzfile=True 
end 
%scf 
maxiter 250 
end
%output
Print[P_Hirshfeld] = 1
end
% maxcore
4000
*xyz 0 1
C   -1.82264634   0.18238307  -0.14751263 
C   -1.73289962  -0.68389259  -1.24013960 
C   -1.09144102  -1.91875051  -1.13788108 
C   -0.46063604  -2.19031200   0.07548380 
C   -1.26957226  -0.18179346   1.02698339 
C   -0.54811879  -1.31020422   1.15639863 
H   -2.35476171   1.10295767  -0.36988499 
H   -2.21718342  -0.45036616  -2.20275052 
H   -1.10861915  -2.64790630  -1.96276723 
H    0.01467262  -1.62846716   2.02794969 
H    0.05582715  -3.16077970   0.16103541 
Pd   1.45172110   1.25451480   0.09685241 
O    2.55572846   0.84684359  -1.64039314 
O    2.59397606  -0.43809073   0.08615191 
O    0.34285038   2.91126347  -0.04091963 
C    0.13989864   2.96613674   1.19224542 
O    0.65859438   2.08701523   1.92092719 
H   -1.48779170   0.48446498   2.04130890 
C    3.01820532  -0.16849670  -1.06731313 
H    3.75285098  -0.82795782  -1.57645481 
H   -0.49337605   3.76625631   1.60233170 
*
