! EnGrad PBEh-3c
%output 
xyzfile=True 
end 
%scf 
maxiter 250 
end
%output
Print[P_Hirshfeld] = 1
end
% maxcore
4000
*xyz 0 1
C   -1.82019823   0.18850293  -0.17233498 
C   -1.77260425  -0.69539581  -1.22363588 
C   -1.15475971  -1.94390097  -1.11744187 
C   -0.49777449  -2.20398885   0.08642036 
C   -1.23128916  -0.18357536   0.98674984 
C   -0.52872399  -1.32570771   1.14070334 
H   -2.31714309   1.12654637  -0.38170133 
H   -2.26105901  -0.46904511  -2.17500673 
H   -1.21198180  -2.70044686  -1.93845047 
H    0.04568453  -1.61451821   2.00759414 
H    0.00231803  -3.17300768   0.17123642 
Pd   1.47457237   1.26177332   0.10074051 
O    2.60602839   0.89218897  -1.61534186 
O    2.59496483  -0.43730130   0.08365401 
O    0.35472579   2.90703426  -0.02735080 
C    0.12801025   2.96665752   1.19142505 
O    0.64096908   2.07556679   1.93307495 
H   -1.41356178   0.48017677   1.97035209 
C    3.04877814  -0.13739932  -1.05555393 
H    3.80844347  -0.77824025  -1.55769024 
H   -0.49956970   3.75923200   1.59473498 
*
