! EnGrad PBEh-3c
%output 
xyzfile=True 
end 
%scf 
maxiter 250 
end
%output
Print[P_Hirshfeld] = 1
end
% maxcore
4000
*xyz 0 1
C   -1.81367222   0.19254307  -0.19356042 
C   -1.81309582  -0.72491260  -1.23429990 
C   -1.21621191  -1.96752267  -1.09685883 
C   -0.53295707  -2.24277748   0.07449559 
C   -1.19900166  -0.15621801   0.98787049 
C   -0.51148424  -1.33619153   1.12272316 
H   -2.28287988   1.15213922  -0.39023519 
H   -2.30338157  -0.48447898  -2.14759782 
H   -1.30722109  -2.73272054  -1.89719037 
H    0.07468560  -1.60048316   1.99481312 
H   -0.04676223  -3.18314978   0.18348600 
Pd   1.49340126   1.26510995   0.09560118 
O    2.65348671   0.93628607  -1.58600030 
O    2.60281805  -0.43345729   0.07645869 
O    0.37084883   2.90560903  -0.02287356 
C    0.11751584   2.96528138   1.19360566 
O    0.62601078   2.06382670   1.94973300 
H   -1.33886702   0.46350512   1.88034324 
C    3.07326749  -0.11149489  -1.04363038 
H    3.85663875  -0.72798313  -1.53510567 
H   -0.50875859   3.75452833   1.59067176 
*
