! EnGrad PBEh-3c
%output 
xyzfile=True 
end 
%scf 
maxiter 250 
end
%output
Print[P_Hirshfeld] = 1
end
% maxcore
4000
*xyz 0 1
Lu   0.07788113  -0.41851188   0.31778305 
C    0.54909383   0.47542660   2.69194591 
C    1.68967395  -0.25441005   2.28968187 
C    2.32655049   0.46489459   1.25825268 
C    1.57001128   1.62214861   1.00032523 
C    0.47486853   1.63188756   1.89291737 
H    1.81704000   2.39202185   0.28254180 
H   -0.26287266   2.41810197   1.97924374 
H   -0.14103056   0.19735172   3.47355397 
H    2.04149861  -1.17831550   2.72735941 
H    3.24986040   0.18990631   0.77048206 
C    0.63502673  -0.15064306  -2.23539721 
C   -0.52813295  -0.95199321  -2.17835861 
C    1.18505284  -2.13032529  -1.24540759 
C    1.69513000  -0.88724228  -1.67465901 
H    0.71847599   0.82438957  -2.69252051 
C   -0.18873782  -2.17318317  -1.57232319 
H   -1.50066185  -0.68511938  -2.56526046 
H    2.72464175  -0.57074911  -1.62160123 
H    1.76292261  -2.93378591  -0.81148783 
H   -0.86105032  -2.99810166  -1.39095985 
C   -1.96588023  -1.30496374   1.09691478 
H   -2.34160570  -0.93269963   2.05707034 
H   -1.93615911  -2.40118083   1.19790961 
H   -2.77105317  -1.12013428   0.36980125 
C   -1.99501956   2.18499210  -1.06758644 
H   -2.14947334   1.40558639  -0.30242266 
H   -0.94412427   2.45029923  -1.07186779 
H   -2.62422504   3.03807252  -0.78038177 
H   -2.31596268   1.77934410  -2.03691642 
*
