! EnGrad PBEh-3c
%output 
xyzfile=True 
end 
%scf 
maxiter 250 
end
%output
Print[P_Hirshfeld] = 1
end
% maxcore
4000
*xyz 0 1
Lu   0.08857641  -0.42263155   0.31934925 
C    0.54219081   0.48109608   2.68971429 
C    1.68402112  -0.25174491   2.29704725 
C    2.32440663   0.45936576   1.26190591 
C    1.57290187   1.61856128   0.99689162 
C    0.47426939   1.63455918   1.88419795 
H    1.83036634   2.38749610   0.28205641 
H   -0.26278804   2.42113954   1.96281060 
H   -0.15138134   0.20799400   3.46903103 
H    2.02948977  -1.17841088   2.73386413 
H    3.23869876   0.17232417   0.76613922 
C    0.63784513  -0.14829814  -2.22930759 
C   -0.52697235  -0.94357769  -2.17649244 
C    1.18124816  -2.12986898  -1.24424900 
C    1.69270038  -0.88733640  -1.66735301 
H    0.72900630   0.82644723  -2.69111846 
C   -0.19316233  -2.16790025  -1.57179252 
H   -1.49900265  -0.67209057  -2.56278052 
H    2.72246760  -0.56763580  -1.60415138 
H    1.75557490  -2.93318164  -0.80394373 
H   -0.86983610  -2.98706926  -1.38736406 
C   -1.95621032  -1.30160688   1.09331124 
H   -2.32486129  -0.93288147   2.05783663 
H   -1.90485167  -2.39889647   1.19506135 
H   -2.77257658  -1.13032313   0.37359109 
C   -2.00022286   2.17828495  -1.05783884 
H   -2.15793442   1.39694224  -0.29374404 
H   -0.97252223   2.43424352  -1.06567076 
H   -2.60685126   3.01487643  -0.78841513 
H   -2.31647369   1.79362171  -2.00170950 
*
