! EnGrad PBEh-3c
%output 
xyzfile=True 
end 
%scf 
maxiter 250 
end
%output
Print[P_Hirshfeld] = 1
end
% maxcore
4000
*xyz 0 1
Lu   0.04213198  -0.40112532   0.31363240 
C    0.55680494   0.46064001   2.69077912 
C    1.70507747  -0.25485193   2.28592102 
C    2.33523142   0.47557901   1.25838127 
C    1.56677042   1.62659807   1.00875722 
C    0.46698390   1.61620028   1.89545068 
H    1.78429210   2.39717857   0.28394683 
H   -0.26011629   2.40424355   2.01261809 
H   -0.11881201   0.17989022   3.48127572 
H    2.06258291  -1.17822009   2.71786394 
H    3.26915000   0.22191019   0.77747878 
C    0.63101266  -0.15935856  -2.24062113 
C   -0.53129951  -0.96161525  -2.16510832 
C    1.19500323  -2.13610901  -1.25992371 
C    1.69729142  -0.89043296  -1.69197929 
H    0.69227394   0.82233160  -2.69117917 
C   -0.18101068  -2.18300544  -1.56731498 
H   -1.50260273  -0.71342695  -2.56748481 
H    2.73177685  -0.57421386  -1.64898456 
H    1.77366955  -2.93635128  -0.82175678 
H   -0.84331088  -3.01508777  -1.39924505 
C   -1.95725996  -1.29854237   1.09904963 
H   -2.37343200  -0.93156807   2.06065385 
H   -1.99897958  -2.39963880   1.20166580 
H   -2.76815456  -1.10523294   0.36060269 
C   -2.01623849   2.07512551  -0.96999887 
H   -2.17375400   1.44830435  -0.36717122 
H   -0.95610933   2.54833288  -1.16162296 
H   -2.57021130   3.03585960  -0.82498980 
H   -2.26286774   1.82626771  -2.03121819 
*
