! EnGrad PBEh-3c
%output 
xyzfile=True 
end 
%scf 
maxiter 250 
end
%output
Print[P_Hirshfeld] = 1
end
% maxcore
4000
*xyz 0 1
Lu   0.04476553  -0.40488913   0.31549892 
C    0.55803694   0.45974145   2.69255714 
C    1.70502271  -0.25571376   2.28591573 
C    2.33443078   0.47556033   1.25760331 
C    1.56599173   1.62640471   1.00922514 
C    0.46716970   1.61593224   1.89696391 
H    1.78358978   2.39688820   0.28459412 
H   -0.26368307   2.40264213   2.01164655 
H   -0.11935730   0.17747742   3.48164360 
H    2.06432537  -1.17799124   2.71814525 
H    3.26815396   0.22174563   0.77632654 
C    0.62925643  -0.15940094  -2.24056656 
C   -0.53191599  -0.96222626  -2.16592172 
C    1.19560492  -2.13573886  -1.25817443 
C    1.69743417  -0.89024089  -1.69045527 
H    0.69163260   0.82203097  -2.68995678 
C   -0.18063173  -2.18355587  -1.56766210 
H   -1.50391728  -0.71326702  -2.56441392 
H    2.73025918  -0.57315689  -1.64815903 
H    1.77467086  -2.93614920  -0.82234827 
H   -0.84392389  -3.01671954  -1.39701467 
C   -1.96407002  -1.29758078   1.10019586 
H   -2.36965029  -0.93059418   2.05476403 
H   -1.99559089  -2.39514936   1.20065875 
H   -2.76446454  -1.10357184   0.36279952 
C   -1.98703259   2.16313783  -1.05157618 
H   -2.17804896   1.40873431  -0.32687064 
H   -0.97762049   2.52341543  -1.14288773 
H   -2.57041473   3.02024424  -0.81969263 
H   -2.26437128   1.82073218  -2.01669145 
*
