! EnGrad PBEh-3c
%output 
xyzfile=True 
end 
%scf 
maxiter 250 
end
%output
Print[P_Hirshfeld] = 1
end
% maxcore
4000
*xyz 0 1
Lu   0.05094620  -0.40724014   0.31572025 
C    0.55795299   0.46063561   2.69336185 
C    1.70342438  -0.25598848   2.28538631 
C    2.33350472   0.47462330   1.25713055 
C    1.56566490   1.62582503   1.00825566 
C    0.46835112   1.61788893   1.89768247 
H    1.78678735   2.39664486   0.28442105 
H   -0.26498355   2.40400466   2.00830382 
H   -0.12172775   0.17845550   3.48120375 
H    2.06284614  -1.17804623   2.71906055 
H    3.26610328   0.21893787   0.77564719 
C    0.62899724  -0.15845085  -2.24004245 
C   -0.53137512  -0.96137733  -2.16825666 
C    1.19491289  -2.13423107  -1.25589536 
C    1.69724614  -0.88991665  -1.68854005 
H    0.69411126   0.82206283  -2.68998702 
C   -0.18138647  -2.18294676  -1.56839081 
H   -1.50420862  -0.71053568  -2.56371557 
H    2.72900698  -0.57284097  -1.64578182 
H    1.77414146  -2.93614515  -0.82162169 
H   -0.84584944  -3.01582589  -1.39570685 
C   -1.97162595  -1.29971860   1.10130737 
H   -2.36502373  -0.93105880   2.05136259 
H   -1.98875353  -2.39294549   1.19992507 
H   -2.76216686  -1.10453800   0.36559671 
C   -1.98058506   2.18588788  -1.07173763 
H   -2.17279678   1.40183493  -0.31689452 
H   -0.97050364   2.50793304  -1.12706966 
H   -2.58358360   3.02501486  -0.80972331 
H   -2.27398048   1.80905520  -2.02436506 
*
