! EnGrad PBEh-3c
%output 
xyzfile=True 
end 
%scf 
maxiter 250 
end
%output
Print[P_Hirshfeld] = 1
end
% maxcore
4000
*xyz 0 1
Lu   0.05303829  -0.41168094   0.31787150 
C    0.55493439   0.47152644   2.69335204 
C    1.69511668  -0.25573668   2.28443724 
C    2.33034124   0.46901630   1.25579974 
C    1.57138800   1.62610141   1.00567696 
C    0.47406266   1.62876607   1.89664574 
H    1.80348219   2.39484288   0.28261457 
H   -0.26069528   2.41555591   1.99484821 
H   -0.13121199   0.18998808   3.47642954 
H    2.05049932  -1.17753016   2.72172116 
H    3.26132936   0.20590765   0.77563005 
C    0.63534145  -0.15600992  -2.24160884 
C   -0.52790503  -0.95683836  -2.17748163 
C    1.18950603  -2.13063875  -1.24983501 
C    1.69645816  -0.88784962  -1.68310328 
H    0.70832892   0.82379037  -2.69359267 
C   -0.18518356  -2.17801159  -1.57265947 
H   -1.50103260  -0.69742177  -2.56877186 
H    2.72963364  -0.57395102  -1.63734561 
H    1.76791368  -2.93479725  -0.81752209 
H   -0.85342305  -3.00690794  -1.39573980 
C   -1.96928242  -1.30716962   1.09967930 
H   -2.35642813  -0.93671815   2.05353164 
H   -1.96782623  -2.39864690   1.20068784 
H   -2.76624787  -1.11478259   0.37047559 
C   -1.99689095   2.17297353  -1.06046642 
H   -2.15285801   1.42806298  -0.32957561 
H   -0.94647717   2.47255114  -1.09177133 
H   -2.61233866   3.03486255  -0.78388408 
H   -2.29934453   1.78350107  -2.03665490 
*
