! EnGrad PBEh-3c
%output 
xyzfile=True 
end 
%scf 
maxiter 250 
end
%output
Print[P_Hirshfeld] = 1
end
% maxcore
4000
*xyz 0 1
Lu   0.06075437  -0.41337491   0.31746567 
C    0.55396469   0.47179628   2.69322541 
C    1.69312947  -0.25473876   2.28498786 
C    2.33001459   0.46806790   1.25589245 
C    1.56975395   1.62445124   1.00500703 
C    0.47490013   1.63004313   1.89597380 
H    1.80702867   2.39486680   0.28212878 
H   -0.26137070   2.41629305   1.99128799 
H   -0.13352321   0.19151661   3.47593309 
H    2.04882357  -1.17825849   2.72316209 
H    3.25834520   0.20240702   0.77461149 
C    0.63385775  -0.15347434  -2.24072426 
C   -0.52762046  -0.95592155  -2.17814812 
C    1.18738623  -2.12974871  -1.24868101 
C    1.69844821  -0.88788544  -1.68059688 
H    0.71084808   0.82343976  -2.69330461 
C   -0.18611137  -2.17781282  -1.57236324 
H   -1.50121971  -0.69450868  -2.56809373 
H    2.72730578  -0.57349510  -1.63399760 
H    1.76732989  -2.93497904  -0.81606157 
H   -0.85484403  -3.00469054  -1.39467443 
C   -1.96916703  -1.30711705   1.09903391 
H   -2.35342374  -0.93521893   2.05523033 
H   -1.96040218  -2.40025927   1.20011834 
H   -2.76801873  -1.11545380   0.36960148 
C   -2.00979751   2.16551626  -1.05515692 
H   -2.14858493   1.42631213  -0.32579076 
H   -0.92765135   2.47074463  -1.08595122 
H   -2.62057391   3.04292899  -0.78060121 
H   -2.30575244   1.77904745  -2.04549066 
*
