21
autodE path point 0. E = -737.154894041332 charge = 0 mult = 1 
C    -1.94850   0.11390  -0.11553
C    -1.51314  -0.55355  -1.25176
C    -0.65360  -1.63698  -1.13265
C    -0.22371  -2.04826   0.12095
C    -1.51877  -0.29869   1.13870
C    -0.65405  -1.37730   1.25696
H    -2.62392   0.95412  -0.20975
H    -1.84157  -0.22938  -2.23030
H    -0.32031  -2.16033  -2.01958
H    -0.30961  -1.68955   2.23377
H     0.45051  -2.88926   0.21625
Pd    1.43399   1.27524   0.00042
O     2.09476   0.53096  -1.76783
O     2.59801  -0.39701   0.11164
O     0.31132   2.97233  -0.11995
C     0.21519   2.97032   1.13364
O     0.79029   2.05104   1.76995
H    -1.85791   0.21851   2.02659
C     2.67984  -0.39057  -1.14227
H     3.24668  -1.16254  -1.67564
H    -0.35550   3.74699   1.65639
21
autodE path point 1. E = -737.15292520063 charge = 0 mult = 1 
C    -1.89818   0.15004  -0.15000
C    -1.67106  -0.63773  -1.26670
C    -0.92236  -1.80663  -1.13984
C    -0.36808  -2.16617   0.08752
C    -1.37312  -0.22375   1.08218
C    -0.59280  -1.36797   1.19676
H    -2.47615   1.05597  -0.22866
H    -2.07538  -0.34616  -2.22973
H    -0.77133  -2.44781  -2.01236
H    -0.15907  -1.61830   2.15010
H     0.23191  -3.06508   0.17837
Pd    1.47419   1.29319   0.06407
O     2.29512   0.69295  -1.67899
O     2.63636  -0.38043   0.15742
O     0.34906   2.96857  -0.09331
C     0.17414   2.95365   1.15251
O     0.70891   2.02835   1.81127
H    -1.56294   0.38171   1.96030
C     2.86345  -0.25277  -1.07219
H     3.53855  -0.93539  -1.60563
H    -0.42608   3.72816   1.63999
21
autodE path point 2. E = -737.145512578073 charge = 0 mult = 1 
C    -1.83946   0.17178  -0.19543
C    -1.84336  -0.72021  -1.25243
C    -1.21943  -1.97029  -1.09857
C    -0.52871  -2.27466   0.08754
C    -1.22316  -0.17725   0.98552
C    -0.53611  -1.36144   1.12512
H    -2.30281   1.13151  -0.30462
H    -2.32575  -0.46066  -2.21103
H    -1.26881  -2.70986  -1.91101
H     0.00311  -1.57028   2.02634
H     0.00661  -3.23553   0.18176
Pd    1.51940   1.31012   0.11524
O     2.56658   0.91023  -1.58579
O     2.64747  -0.38511   0.13406
O     0.41336   2.96810  -0.05198
C     0.15266   2.95033   1.18128
O     0.64245   2.02763   1.87028
H    -1.26176   0.50424   1.83607
C     3.05788  -0.10142  -1.02029
H     3.81859  -0.71643  -1.52437
H    -0.48496   3.72614   1.60871
21
autodE path point 3. E = -737.131889168508 charge = 0 mult = 1 
C    -1.75828   0.18590  -0.26807
C    -1.99081  -0.78807  -1.23659
C    -1.48304  -2.08527  -1.01958
C    -0.67275  -2.36649   0.09778
C    -1.06843  -0.13219   0.88023
C    -0.47304  -1.36164   1.04021
H    -2.11661   1.18381  -0.42778
H    -2.54703  -0.55084  -2.16540
H    -1.71408  -2.88428  -1.73869
H     0.15296  -1.55051   1.88852
H    -0.20324  -3.36310   0.21660
Pd    1.49214   1.24683   0.12134
O     2.85137   1.13366  -1.46390
O     2.62558  -0.41770   0.01674
O     0.44720   2.90586   0.01502
C     0.12375   2.95103   1.24254
O     0.56253   2.08896   2.01471
H    -0.99331   0.58172   1.68115
C     3.23455   0.03661  -0.99029
H     4.05994  -0.53367  -1.44677
H    -0.54875   3.74726   1.55682
21
autodE path point 4. E = -737.125453009238 charge = 0 mult = 1 
C    -1.69233   0.18789  -0.34980
C    -2.07340  -0.82602  -1.22448
C    -1.63004  -2.12983  -0.95478
C    -0.75911  -2.41690   0.10608
C    -0.92408  -0.09002   0.78861
C    -0.41552  -1.37961   0.96590
H    -1.98837   1.21823  -0.52806
H    -2.67178  -0.59041  -2.11803
H    -1.96093  -2.93697  -1.59277
H     0.25633  -1.54955   1.80110
H    -0.33162  -3.42038   0.25266
Pd    1.41266   1.12943   0.04429
O     3.06166   1.26834  -1.33521
O     2.59053  -0.46912  -0.14266
O     0.41554   2.80138   0.07453
C     0.08568   2.94280   1.30705
O     0.47895   2.18091   2.17610
H    -0.81967   0.62721   1.57924
C     3.34902   0.10766  -0.97492
H     4.20848  -0.44450  -1.38898
H    -0.59004   3.77211   1.50802
21
autodE path point 5. E = -737.126129211635 charge = 0 mult = 1 
C    -1.60493   0.20796  -0.45484
C    -2.10673  -0.84315  -1.20377
C    -1.73814  -2.13521  -0.87934
C    -0.81920  -2.42722   0.11001
C    -0.73823  -0.06247   0.64623
C    -0.32301  -1.39770   0.88856
H    -1.83091   1.24645  -0.67767
H    -2.75117  -0.62137  -2.01316
H    -2.17040  -2.95112  -1.43537
H     0.40049  -1.56208   1.68021
H    -0.47355  -3.40937   0.29830
Pd    1.31320   1.00225  -0.06235
O     3.18316   1.36471  -1.11546
O     2.54102  -0.54720  -0.34704
O     0.33392   2.66633   0.16085
C     0.00005   2.91987   1.38294
O     0.30770   2.26509   2.35157
H    -0.62840   0.63905   1.44541
C     3.41162   0.15308  -0.93949
H     4.31111  -0.34720  -1.32818
H    -0.63385   3.80207   1.46296
21
autodE path point 6. E = -737.115134652639 charge = 0 mult = 1 
C    -1.56168   0.22401  -0.39826
C    -2.01021  -0.81270  -1.20540
C    -1.59446  -2.11747  -0.96330
C    -0.74358  -2.37389   0.10615
C    -0.65503  -0.00131   0.66643
C    -0.30927  -1.34069   0.91685
H    -1.89010   1.22295  -0.63523
H    -2.64915  -0.61250  -2.05682
H    -1.91349  -2.93075  -1.62313
H     0.37232  -1.56926   1.71865
H    -0.38633  -3.38142   0.26457
Pd    1.25442   0.96187  -0.04334
O     3.03979   1.26672  -1.18679
O     2.47691  -0.60743  -0.26947
O     0.32460   2.67229   0.22330
C    -0.11910   2.90312   1.40131
O    -0.10938   2.13269   2.34961
H    -0.41431   0.83870   1.52986
C     3.29127   0.06346  -0.96583
H     4.16689  -0.45118  -1.39112
H    -0.57181   3.87946   1.52459
21
autodE path point 7. E = -737.100185605599 charge = 0 mult = 1 
C    -1.53153   0.19845  -0.44334
C    -2.03246  -0.84091  -1.21948
C    -1.58427  -2.13901  -0.99063
C    -0.76447  -2.41032   0.09982
C    -0.52676  -0.03570   0.51213
C    -0.28050  -1.36205   0.86655
H    -1.87622   1.20303  -0.65069
H    -2.66462  -0.62469  -2.07718
H    -1.85310  -2.93612  -1.68058
H     0.38518  -1.57272   1.68827
H    -0.38738  -3.41262   0.26573
Pd    1.20953   0.93992  -0.02591
O     3.02020   1.23576  -1.21642
O     2.48499  -0.63040  -0.23783
O     0.31156   2.71558   0.24265
C    -0.13478   2.93799   1.36985
O    -0.19648   2.08593   2.33243
H    -0.40580   1.16259   1.94009
C     3.26850   0.03748  -0.97369
H     4.13587  -0.48221  -1.41608
H    -0.58436   3.89864   1.57890
21
autodE path point 8. E = -737.089990531535 charge = 0 mult = 1 
C    -1.44737   0.17789  -0.55344
C    -2.06554  -0.87051  -1.23271
C    -1.66759  -2.18295  -0.97423
C    -0.80107  -2.43911   0.09091
C    -0.38445  -0.07574   0.31149
C    -0.20097  -1.37945   0.75512
H    -1.76020   1.18718  -0.77486
H    -2.77165  -0.65806  -2.04169
H    -1.98802  -2.99409  -1.63361
H     0.48587  -1.58144   1.55680
H    -0.49687  -3.46282   0.31817
Pd    1.23697   0.96341  -0.03994
O     3.12252   1.25736  -1.18074
O     2.51324  -0.63842  -0.28629
O     0.30121   2.77926   0.29356
C    -0.15745   2.93040   1.38118
O    -0.04983   2.11960   2.38396
H    -0.71797   1.42218   2.40714
C     3.32116   0.04549  -0.98027
H     4.20169  -0.46454  -1.41211
H    -0.69888   3.82342   1.58277
21
autodE path point 9. E = -737.09920528641 charge = 0 mult = 1 
C    -1.40983   0.17085  -0.62324
C    -2.10938  -0.87429  -1.21462
C    -1.76798  -2.19227  -0.91661
C    -0.84774  -2.44117   0.10255
C    -0.32445  -0.10104   0.20221
C    -0.16225  -1.39189   0.68633
H    -1.68606   1.18103  -0.88050
H    -2.85118  -0.66478  -1.98731
H    -2.17795  -3.01823  -1.50718
H     0.55737  -1.59747   1.45477
H    -0.58502  -3.46465   0.36313
Pd    1.27958   0.96653  -0.07947
O     3.22719   1.31821  -1.10298
O     2.55152  -0.62502  -0.36243
O     0.33475   2.78048   0.29075
C    -0.19323   2.88736   1.37062
O     0.00112   2.01552   2.32514
H    -0.81119   1.57260   2.61554
C     3.39796   0.09345  -0.96780
H     4.29940  -0.40091  -1.36683
H    -0.77327   3.75421   1.59163
21
autodE path point 10. E = -737.117382010885 charge = 0 mult = 1 
C    -1.35799   0.15200  -0.74053
C    -2.18889  -0.87024  -1.17931
C    -1.93687  -2.18325  -0.79606
C    -0.92430  -2.44125   0.12470
C    -0.24441  -0.13672   0.04013
C    -0.10686  -1.41695   0.56387
H    -1.56870   1.15569  -1.07251
H    -2.98773  -0.65502  -1.88488
H    -2.49627  -3.00691  -1.24470
H     0.67636  -1.64091   1.26261
H    -0.72143  -3.46007   0.43872
Pd    1.34958   0.97109  -0.14447
O     3.39482   1.41999  -0.93518
O     2.62704  -0.58147  -0.50122
O     0.34422   2.75444   0.28706
C    -0.22356   2.80936   1.34709
O    -0.03257   1.90167   2.27542
H    -0.81320   1.69822   2.78848
C     3.54060   0.18582  -0.92398
H     4.47654  -0.28102  -1.27029
H    -0.86887   3.64564   1.58581
21
autodE path point 11. E = -737.137386142243 charge = 0 mult = 1 
C    -1.26531   0.06894  -1.02241
C    -2.32893  -0.82434  -1.08991
C    -2.23022  -2.07741  -0.50600
C    -1.05615  -2.43734   0.14007
C    -0.08554  -0.28836  -0.37440
C     0.01203  -1.55252   0.20243
H    -1.36540   1.03449  -1.50456
H    -3.23433  -0.53847  -1.61093
H    -3.05762  -2.77273  -0.56277
H     0.92734  -1.86608   0.68936
H    -0.96388  -3.41844   0.58910
Pd    1.44840   0.90054  -0.31164
O     3.59504   1.58069  -0.46482
O     2.87387  -0.46053  -0.78216
O     0.18889   2.46944   0.21014
C    -0.33840   2.58755   1.29011
O    -0.10649   1.76680   2.27893
H    -0.62276   1.98477   3.06301
C     3.81244   0.39076  -0.74437
H     4.83085   0.03775  -0.96753
H    -1.03382   3.41448   1.47837
