21
autodE path point 0. E = -1104.454288962078 charge = 1 mult = 1 
Sc    1.69148  -1.47736  -1.54143
C     0.53759  -0.77390   0.25469
N    -0.44476  -1.41618   0.91369
C    -0.93745  -0.64583   1.92857
C    -0.24356   0.51473   1.90574
N     0.65182   0.41381   0.87901
C     1.56466   1.48424   0.51834
H     2.03512   1.88367   1.41347
H     1.03331   2.28042   0.00126
H     2.34836   1.10255  -0.13211
C    -0.95510  -2.74249   0.61366
H    -0.29603  -3.24467  -0.09002
H    -1.94968  -2.67708   0.17754
H    -0.99706  -3.33574   1.52404
H    -1.72669  -0.97534   2.58256
H    -0.31604   1.38461   2.53599
C    -0.39662   1.64085  -2.69436
H    -0.67563   1.10695  -3.59866
H    -0.83342   2.63557  -2.72231
H    -0.77758   1.10882  -1.82420
H     0.68730   1.73239  -2.64548
21
autodE path point 1. E = -1104.444638968725 charge = 1 mult = 1 
Sc    1.68457  -1.41253  -1.49134
C     0.44730  -0.68075   0.24130
N    -0.46972  -1.39114   0.92475
C    -0.87456  -0.71152   2.03677
C    -0.19077   0.44926   2.05288
N     0.59807   0.46392   0.93455
C     1.48327   1.55982   0.57304
H     1.75788   2.11939   1.46308
H     0.99510   2.23018  -0.13672
H     2.40476   1.17594   0.12728
C    -0.99251  -2.70091   0.57737
H    -0.48911  -3.08442  -0.30537
H    -2.05773  -2.64204   0.36486
H    -0.82922  -3.39765   1.39704
H    -1.56672  -1.12073   2.75542
H    -0.23429   1.27867   2.74609
C    -0.35924   1.60731  -2.82947
H    -0.99496   1.34518  -3.61344
H    -0.10904   2.64983  -2.88310
H    -0.72228   1.34847  -1.90111
H     0.51981   0.91633  -3.03310
21
autodE path point 2. E = -1104.43503460546 charge = 1 mult = 1 
Sc    1.66166  -1.26231  -1.51818
C     0.41994  -0.61837   0.25276
N    -0.47188  -1.36623   0.92798
C    -0.82404  -0.74784   2.09245
C    -0.15301   0.41493   2.13424
N     0.57445   0.50363   0.97560
C     1.43763   1.61601   0.61490
H     1.56169   2.26594   1.47466
H     1.00505   2.19559  -0.21755
H     2.42778   1.24382   0.32498
C    -0.99069  -2.67251   0.55480
H    -0.57797  -2.98175  -0.40102
H    -2.07701  -2.64131   0.46512
H    -0.71690  -3.41018   1.30489
H    -1.46972  -1.20015   2.83092
H    -0.14916   1.20506   2.88212
C    -0.25140   1.51520  -2.93510
H    -1.02492   1.57841  -3.68399
H     0.33346   2.41498  -2.97629
H    -0.71693   1.50818  -1.99189
H     0.00444   0.44372  -3.11382
21
autodE path point 3. E = -1104.387412287984 charge = 1 mult = 1 
Sc    1.43944  -1.02568  -1.72431
C     0.39850  -0.56694   0.25724
N    -0.47173  -1.34527   0.92709
C    -0.77399  -0.77959   2.13401
C    -0.13113   0.38868   2.19029
N     0.55376   0.53103   1.00629
C     1.40920   1.64934   0.65118
H     1.42981   2.34789   1.47279
H     1.02794   2.17125  -0.25054
H     2.43836   1.30097   0.47365
C    -0.97269  -2.65558   0.54334
H    -0.61939  -2.92049  -0.44972
H    -2.06172  -2.65599   0.52046
H    -0.63833  -3.41202   1.25267
H    -1.40839  -1.25767   2.87450
H    -0.09623   1.16017   2.96739
C    -0.26173   1.49133  -2.94218
H    -0.97679   1.65374  -3.79811
H     0.52254   2.28557  -3.00337
H    -0.77825   1.61639  -1.95691
H    -0.02575   0.02745  -3.14772
21
autodE path point 4. E = -1104.381796066974 charge = 1 mult = 1 
Sc    1.14117  -0.78004  -1.96094
C     0.39230  -0.57239   0.25095
N    -0.46923  -1.34860   0.93681
C    -0.77192  -0.77994   2.14412
C    -0.14084   0.39345   2.18759
N     0.56376   0.52207   1.01280
C     1.41088   1.64619   0.64731
H     1.44073   2.33990   1.47080
H     1.02190   2.16090  -0.25437
H     2.44860   1.30965   0.47301
C    -0.97271  -2.65406   0.54501
H    -0.62350  -2.92584  -0.45233
H    -2.05836  -2.65584   0.51291
H    -0.64179  -3.41239   1.25332
H    -1.41109  -1.25959   2.87655
H    -0.10614   1.16913   2.95794
C    -0.18864   1.58589  -2.84728
H    -0.86710   1.55888  -3.70617
H     0.49152   2.45132  -2.96322
H    -0.79057   1.66504  -1.93759
H     0.13325  -0.40944  -3.14835
21
autodE path point 5. E = -1104.456599339552 charge = 1 mult = 1 
Sc    0.76906  -0.43051  -2.18687
C     0.30577  -0.50426   0.21150
N    -0.45047  -1.34526   0.94524
C    -0.69648  -0.83010   2.19041
C    -0.07772   0.35346   2.24665
N     0.54768   0.53829   1.03983
C     1.35332   1.70031   0.69920
H     1.24102   2.48283   1.44928
H     1.04983   2.12152  -0.27473
H     2.40893   1.42328   0.70406
C    -0.95686  -2.64119   0.52703
H    -0.71815  -2.83043  -0.52318
H    -2.03916  -2.68073   0.62219
H    -0.52606  -3.42514   1.14956
H    -1.28357  -1.35103   2.93624
H     0.00173   1.07299   3.05837
C     0.03532   1.50687  -2.86497
H    -0.60322   1.51094  -3.75006
H     0.69169   2.38481  -3.00177
H    -0.67316   1.78095  -2.06681
H    -0.37986  -0.83536  -3.10563
21
autodE path point 6. E = -1104.490034502788 charge = 1 mult = 1 
Sc    0.31964  -0.36645  -2.08395
C     0.11613  -0.35340   0.20096
N    -0.46476  -1.31364   0.94353
C    -0.46454  -0.97586   2.26709
C     0.13186   0.23532   2.35675
N     0.47508   0.59590   1.08434
C     1.15514   1.83815   0.76221
H     0.65842   2.67072   1.25438
H     1.11969   2.01675  -0.30950
H     2.19357   1.80038   1.08526
C    -1.00751  -2.56363   0.43579
H    -1.14437  -2.50642  -0.64250
H    -1.97992  -2.75074   0.88449
H    -0.34103  -3.39101   0.67115
H    -0.88639  -1.60447   3.03283
H     0.32606   0.85626   3.21477
C     0.19416   1.56325  -2.95042
H    -0.27161   1.46880  -3.94099
H     1.14529   2.08843  -3.09899
H    -0.45523   2.23315  -2.37277
H    -0.81965  -1.54149  -2.79443
