! EnGrad PBEh-3c
%output 
xyzfile=True 
end 
%scf 
maxiter 250 
end
%output
Print[P_Hirshfeld] = 1
end
% maxcore
4000
*xyz -1 1
Pd  -1.97149659  -1.53522616   0.38849560 
Cl  -3.29656292  -3.29716244  -0.29567964 
Cl  -0.52529900  -4.58952790   1.01621423 
Cl  -4.03643869  -0.48896922   1.12165103 
N   -0.97800245  -0.04978302   1.39115776 
C   -1.31378165   0.49177680   2.55589513 
C   -0.78581562   1.72254629   2.98091132 
C    0.08021934   2.38808952   2.15772041 
C   -0.06704634   0.54484509   0.61148630 
C    0.46520279   1.80025853   0.95042410 
H    0.49983525   3.35310086   2.43294596 
H   -2.03115207  -0.03273128   3.18132032 
H   -1.10615967   2.15219446   3.92114489 
C    0.31930812  -0.15033936  -0.57934881 
C    1.38205790   2.43576682   0.05552066 
C    1.72894161   1.83501010  -1.08974938 
C    1.23221152   0.52851749  -1.43304532 
H    1.79035854   3.40781291   0.33436549 
H    2.42571770   2.32653328  -1.77478232 
C   -0.24084635  -1.42584091  -0.87563223 
C    1.66558246  -0.07999426  -2.62599029 
C    0.22919242  -1.98237981  -2.06655831 
C    1.16330401  -1.33046265  -2.91995568 
H    2.36533928   0.44201568  -3.28149114 
H    1.52595773  -1.80615665  -3.83865339 
H   -0.39733635  -3.72721848   0.11810358 
H   -0.12229101  -2.93158586  -2.43645495 
*
