! EnGrad PBEh-3c
%output 
xyzfile=True 
end 
%scf 
maxiter 250 
end
%output
Print[P_Hirshfeld] = 1
end
% maxcore
4000
*xyz -1 1
Pd  -1.97327469  -1.54517043   0.40176737 
Cl  -3.29634427  -3.29931373  -0.29520147 
Cl  -0.51250908  -4.60616142   1.00733492 
Cl  -4.04744683  -0.50773588   1.13752045 
N   -0.98218214  -0.04516319   1.39221981 
C   -1.31411317   0.49954227   2.55500373 
C   -0.78887762   1.72998499   2.97956681 
C    0.08126474   2.39451164   2.15593547 
C   -0.06935954   0.54861932   0.61090415 
C    0.46501449   1.80296105   0.94981853 
H    0.50205231   3.35659186   2.43395584 
H   -2.03023279  -0.02712194   3.18230240 
H   -1.10896966   2.16119933   3.91849077 
C    0.31851795  -0.14798348  -0.57957179 
C    1.38535020   2.43767111   0.05907143 
C    1.73412211   1.83546531  -1.09097792 
C    1.23239870   0.53069638  -1.43268553 
H    1.79608045   3.40707489   0.33484858 
H    2.43241037   2.32613698  -1.77138016 
C   -0.24221631  -1.42462968  -0.87487453 
C    1.66930319  -0.07907720  -2.62529384 
C    0.22705473  -1.97830106  -2.06720959 
C    1.16267274  -1.32991573  -2.92140309 
H    2.36877488   0.44010576  -3.28119964 
H    1.52806592  -1.80609415  -3.84007529 
H   -0.40455674  -3.74887906   0.10128050 
H   -0.13157316  -2.92390279  -2.44038124 
*
