! EnGrad PBEh-3c
%output 
xyzfile=True 
end 
%scf 
maxiter 250 
end
%output
Print[P_Hirshfeld] = 1
end
% maxcore
4000
*xyz -1 1
Pd  -1.97210114  -1.53860721   0.39300800 
Cl  -3.29648858  -3.29789388  -0.29551706 
Cl  -0.52095043  -4.59518329   1.01319526 
Cl  -4.04018146  -0.49534989   1.12704663 
N   -0.97942355  -0.04821228   1.39151885 
C   -1.31389437   0.49441706   2.55559205 
C   -0.78685670   1.72507545   2.98045418 
C    0.08057478   2.39027304   2.15711353 
C   -0.06783283   0.54612833   0.61128837 
C    0.46513877   1.80117739   0.95021820 
H    0.50058905   3.35428780   2.43328932 
H   -2.03083952  -0.03082411   3.18165423 
H   -1.10711506   2.15525611   3.92024249 
C    0.31903946  -0.14953836  -0.57942462 
C    1.38317728   2.43641428   0.05672792 
C    1.73070298   1.83516487  -1.09016708 
C    1.23227516   0.52925831  -1.43292299 
H    1.79230399   3.40756199   0.33452974 
H    2.42799321   2.32639854  -1.77362558 
C   -0.24131214  -1.42542909  -0.87537462 
C    1.66684751  -0.07968246  -2.62575350 
C    0.22846561  -1.98099303  -2.06677975 
C    1.16308938  -1.33027670  -2.92044780 
H    2.36650738   0.44136631  -3.28139203 
H    1.52667451  -1.80613540  -3.83913683 
H   -0.39979128  -3.73458307   0.11238374 
H   -0.12544694  -2.92897362  -2.43778989 
*
