! EnGrad PBEh-3c
%output 
xyzfile=True 
end 
%scf 
maxiter 250 
end
%output
Print[P_Hirshfeld] = 1
end
% maxcore
4000
*xyz -1 1
Pd  -1.99001718  -1.60523483   0.46875854 
Cl  -3.29636122  -3.30424404  -0.29494856 
Cl  -0.44644469  -4.65425600   0.93302052 
Cl  -4.09881382  -0.59619984   1.21229228 
N   -1.01567469  -0.02727135   1.40566039 
C   -1.31362778   0.54087136   2.55726390 
C   -0.80878636   1.76202067   2.97422282 
C    0.08711689   2.42469906   2.14913281 
C   -0.08001011   0.56914324   0.61065924 
C    0.47011880   1.82240808   0.94577184 
H    0.51116382   3.37030329   2.43868883 
H   -2.02008100   0.00035123   3.17903242 
H   -1.12104990   2.20117161   3.90332553 
C    0.33019417  -0.13137786  -0.58953875 
C    1.40399075   2.44695587   0.07276296 
C    1.75983104   1.83686457  -1.09682168 
C    1.24255419   0.55773959  -1.44015467 
H    1.82014482   3.39927990   0.33535667 
H    2.45760150   2.31889455  -1.75089719 
C   -0.26356855  -1.43436682  -0.85731496 
C    1.69921650  -0.05987552  -2.62241759 
C    0.22878321  -1.95399951  -2.07612692 
C    1.16192795  -1.33872187  -2.94542313 
H    2.37053675   0.42030827  -3.26806604 
H    1.53565609  -1.80499295  -3.84157851 
H   -0.44200477  -3.86819842   0.05468729 
H   -0.17894366  -2.89153447  -2.45872410 
*
