! EnGrad PBEh-3c
%output 
xyzfile=True 
end 
%scf 
maxiter 250 
end
%output
Print[P_Hirshfeld] = 1
end
% maxcore
4000
*xyz -1 1
Pd  -1.94974108  -1.49474078   0.33214769 
Cl  -3.29444864  -3.29299330  -0.29211596 
Cl  -0.57844425  -4.56865113   1.08082092 
Cl  -4.00541253  -0.42498371   1.07122368 
N   -0.96314002  -0.06521001   1.39123538 
C   -1.31074055   0.46506369   2.55386948 
C   -0.77754802   1.69227922   2.98728976 
C    0.08069893   2.37292265   2.15845618 
C   -0.05602015   0.53172664   0.60857549 
C    0.46336163   1.78820733   0.95050140 
H    0.49354051   3.34220704   2.42856094 
H   -2.03870501  -0.05083720   3.18405046 
H   -1.09764466   2.12527986   3.93151242 
C    0.31761055  -0.15681927  -0.57653845 
C    1.36456122   2.43822753   0.06161432 
C    1.71550948   1.82727787  -1.10045821 
C    1.22322265   0.50847623  -1.42649880 
H    1.77264744   3.41004518   0.33325176 
H    2.40723499   2.33139984  -1.78753781 
C   -0.23760767  -1.42430497  -0.88128433 
C    1.64667080  -0.08911013  -2.62529965 
C    0.23445845  -1.99140223  -2.06113301 
C    1.16162443  -1.32938437  -2.90796704 
H    2.36451523   0.45617609  -3.29054597 
H    1.52076690  -1.80491488  -3.83583051 
H   -0.36635184  -3.63605742   0.13821268 
H   -0.09064424  -2.95832387  -2.42555055 
*
