! EnGrad PBEh-3c
%output 
xyzfile=True 
end 
%scf 
maxiter 250 
end
%output
Print[P_Hirshfeld] = 1
end
% maxcore
4000
*xyz -1 1
Pd  -1.97480498  -1.55372883   0.41318951 
Cl  -3.29615609  -3.30116521  -0.29478995 
Cl  -0.50150162  -4.62047681   0.99969308 
Cl  -4.05692082  -0.52388712   1.15117822 
N   -0.98577932  -0.04118720   1.39313385 
C   -1.31439850   0.50622550   2.55423656 
C   -0.79151289   1.73638698   2.97840967 
C    0.08216444   2.40003875   2.15439929 
C   -0.07135037   0.55186756   0.61040313 
C    0.46485243   1.80528694   0.94929735 
H    0.50396039   3.35959633   2.43482498 
H   -2.02944163  -0.02229434   3.18314760 
H   -1.11138804   2.16894923   3.91620654 
C    0.31783791  -0.14595593  -0.57976370 
C    1.38818367   2.43931000   0.06212735 
C    1.73858063   1.83585707  -1.09203525 
C    1.23255979   0.53257162  -1.43237588 
H    1.80100493   3.40643972   0.33526434 
H    2.43817031   2.32579591  -1.76845215 
C   -0.24339535  -1.42358725  -0.87422243 
C    1.67250537  -0.07828794  -2.62469446 
C    0.22521496  -1.97479075  -2.06777011 
C    1.16212944  -1.32944503  -2.92264878 
H    2.37173167   0.43846201  -3.28094876 
H    1.52988030  -1.80604036  -3.84129903 
H   -0.41077085  -3.76752090   0.08680198 
H   -0.13956171  -2.91729047  -2.44376034 
*
