! EnGrad PBEh-3c
%output 
xyzfile=True 
end 
%scf 
maxiter 250 
end
%output
Print[P_Hirshfeld] = 1
end
% maxcore
4000
*xyz -1 1
Pd  -1.97032459  -1.52867158   0.37974777 
Cl  -3.29670704  -3.29574445  -0.29599482 
Cl  -0.53372923  -4.57856423   1.02206685 
Cl  -4.02918289  -0.47659954   1.11119102 
N   -0.97524749  -0.05282809   1.39045772 
C   -1.31356313   0.48665835   2.55648268 
C   -0.78379737   1.71764322   2.98179752 
C    0.07953030   2.38385650   2.15889691 
C   -0.06552163   0.54235738   0.61187001 
C    0.46532691   1.79847722   0.95082325 
H    0.49837391   3.35079984   2.43228032 
H   -2.03175800  -0.03642858   3.18067301 
H   -1.10430751   2.14625907   3.92289431 
C    0.31982894  -0.15189219  -0.57920184 
C    1.37988784   2.43451164   0.05318024 
C    1.72552699   1.83471006  -1.08893961 
C    1.23208815   0.52708131  -1.43328247 
H    1.78658705   3.40829937   0.33404708 
H    2.42130636   2.32679450  -1.77702478 
C   -0.23994336  -1.42663927  -0.87613166 
C    1.66313002  -0.08059872  -2.62644933 
C    0.23060144  -1.98506823  -2.06612903 
C    1.16372011  -1.33082315  -2.91900165 
H    2.36307477   0.44327457  -3.28168327 
H    1.52456816  -1.80619785  -3.83771617 
H   -0.39257718  -3.71294133   0.12919219 
H   -0.11617285  -2.93665001  -2.43386701 
*
