! EnGrad PBEh-3c
%output 
xyzfile=True 
end 
%scf 
maxiter 250 
end
%output
Print[P_Hirshfeld] = 1
end
% maxcore
4000
*xyz -1 1
C   -2.06580931  -0.12700610   0.73363148 
C   -1.80967291   1.12847637   1.35173524 
C   -3.44051791  -0.43710461   0.60834923 
C   -4.48109355   0.40722157   1.05558139 
C   -4.18483808   1.67975273   1.56079373 
C   -2.84285364   1.97281185   1.77128187 
H   -1.92876327  -2.08365145  -1.97474624 
H   -3.76391736  -1.37512785   0.11492193 
H   -2.54964908   2.87752719   2.32791224 
H   -5.53076174   0.17951225   0.84113367 
H   -4.94789828   2.37198300   1.93610742 
C   -0.42231784   1.52796604   1.85136365 
C    0.70639524   0.47058484   1.99264201 
H   -0.57144387   1.97033360   2.85415577 
H   -0.05507467   2.30336861   1.18508964 
C    1.75404990   0.59652702   0.90707623 
H    0.30884712  -0.55905207   1.99440449 
H    1.22447620   0.65218801   2.94409271 
C    1.56771292  -0.06431902  -0.31872424 
C    2.52707498   0.20348251  -1.33185759 
C    3.55227404   1.14241802  -1.13443255 
C    2.80090562   1.51768700   1.10290920 
C    3.71433607   1.78738655   0.09647486 
H    2.49540426  -0.33070184  -2.29488984 
H    4.28466903   1.33148056  -1.91318219 
H    3.02269317   1.83354324   2.12183449 
H    4.52018181   2.49931205   0.27232964 
Pd  -0.18965540  -1.30453598  -0.46550494 
Br  -1.74745651  -3.35235025  -0.77567127 
P    1.47515313  -2.94739014  -0.07897172 
H    1.13421141  -3.59473243   1.13297387 
C    0.18112144  -1.44483602  -3.83780971 
O    1.31117285  -1.79004407  -4.14377752 
O   -0.71954022  -2.16197414  -3.13737509 
O   -0.25471743  -0.23169029  -4.15124671 
H    2.86810476  -2.75671343   0.21468917 
H    1.55143178  -4.12539761  -0.86430448 
H    0.49645128   0.23913903  -4.54239402 
*
