! EnGrad PBEh-3c
%output 
xyzfile=True 
end 
%scf 
maxiter 250 
end
%output
Print[P_Hirshfeld] = 1
end
% maxcore
4000
*xyz -1 1
C   -2.10056843  -0.13060671   0.72393522 
C   -1.81327485   1.11132747   1.37997662 
C   -3.46927620  -0.45401742   0.64857355 
C   -4.48418605   0.40918537   1.07200997 
C   -4.18109751   1.66233488   1.60062306 
C   -2.83623932   1.98327193   1.76380510 
H   -1.85529438  -2.09703564  -1.84484489 
H   -3.77453196  -1.36851106   0.12657555 
H   -2.55133039   2.84175807   2.37060091 
H   -5.53573709   0.16735773   0.88709607 
H   -4.94228313   2.37278741   1.93941268 
C   -0.42556043   1.50360621   1.78129208 
C    0.69136596   0.47517615   1.97195788 
H   -0.57010639   2.01072455   2.76611409 
H   -0.04698643   2.26326851   1.11105814 
C    1.73693212   0.59673898   0.88872687 
H    0.29185905  -0.55161619   1.97526878 
H    1.18981373   0.65684477   2.92752802 
C    1.56825256  -0.08020100  -0.32891811 
C    2.53522795   0.18885939  -1.32459523 
C    3.55965940   1.12239600  -1.13279582 
C    2.79904828   1.49093360   1.10039294 
C    3.70370656   1.79028943   0.09273755 
H    2.50750736  -0.33159670  -2.29852854 
H    4.29085222   1.33040792  -1.91039581 
H    2.99630627   1.85241277   2.10996820 
H    4.53195056   2.47502212   0.28067736 
Pd  -0.12959575  -1.32855777  -0.47574667 
Br  -1.77493782  -3.28869835  -0.81201102 
P    1.46589836  -2.93831492  -0.06490360 
H    1.10623608  -3.58348185   1.13912326 
C    0.18854547  -1.42585228  -3.79505798 
O    1.32988786  -1.78642801  -4.16160437 
O   -0.67921805  -2.10758892  -3.13442351 
O   -0.25643124  -0.19403708  -4.19499675 
H    2.84607864  -2.74981963   0.25448705 
H    1.55426335  -4.12076491  -0.83306798 
H    0.52254207   0.23982252  -4.59227345 
*
