! EnGrad PBEh-3c
%output 
xyzfile=True 
end 
%scf 
maxiter 250 
end
%output
Print[P_Hirshfeld] = 1
end
% maxcore
4000
*xyz -1 1
C   -2.16163286  -0.11798857   0.69548739 
C   -1.85373996   1.03210453   1.41957111 
C   -3.52914096  -0.44979938   0.68914157 
C   -4.52550569   0.42942476   1.10131684 
C   -4.17508646   1.63455839   1.69267274 
C   -2.83719489   1.93986962   1.81670595 
H   -1.90779872  -2.01264167  -1.61576846 
H   -3.83453630  -1.38395285   0.24806676 
H   -2.57115678   2.81509538   2.38918825 
H   -5.56850903   0.16274520   0.98091406 
H   -4.93539381   2.34541061   1.98244091 
C   -0.43920379   1.48731319   1.68606967 
C    0.67852731   0.46600849   1.91522806 
H   -0.51847869   2.10399902   2.56763773 
H   -0.09581956   2.18603500   0.92028586 
C    1.71495325   0.59787257   0.85760379 
H    0.27049790  -0.53321480   1.94047673 
H    1.12488493   0.64852878   2.88999072 
C    1.57732399  -0.05478374  -0.36706589 
C    2.56723137   0.16869053  -1.32987592 
C    3.59142196   1.09943944  -1.12087445 
C    2.82019226   1.41442122   1.09866998 
C    3.70297393   1.76493085   0.08935705 
H    2.56684793  -0.34282938  -2.27972233 
H    4.31865638   1.31785354  -1.89945321 
H    2.95149310   1.86785487   2.07993317 
H    4.52087746   2.45390886   0.28228316 
Pd   0.06688162  -1.33015594  -0.53481049 
Br  -1.78436804  -3.28744551  -0.84058325 
P    1.44768456  -2.94642788  -0.01405112 
H    1.04442450  -3.56441814   1.17933751 
C    0.26975347  -1.37444162  -3.82584233 
O    1.38473883  -1.75026198  -4.16945603 
O   -0.59289066  -2.01907656  -3.12329855 
O   -0.20759136  -0.14725348  -4.27175984 
H    2.77343291  -2.74893313   0.34001895 
H    1.57843177  -4.11305833  -0.76410999 
H    0.55365990   0.24663629  -4.69775173 
*
