! EnGrad PBEh-3c
%output 
xyzfile=True 
end 
%scf 
maxiter 250 
end
%output
Print[P_Hirshfeld] = 1
end
% maxcore
4000
*xyz -1 1
C   -2.15323974  -0.12246085   0.69835627 
C   -1.85116750   1.03936463   1.40794294 
C   -3.52206790  -0.44638479   0.68283899 
C   -4.52514384   0.42533405   1.10541150 
C   -4.17865416   1.63711050   1.68422517 
C   -2.84004571   1.93128989   1.82462259 
H   -1.91130471  -2.01220331  -1.62309032 
H   -3.83695687  -1.38897261   0.24504802 
H   -2.56810189   2.82155155   2.38646587 
H   -5.57082096   0.16251794   0.98003607 
H   -4.93733272   2.34619293   1.98516059 
C   -0.43994182   1.49469808   1.69209452 
C    0.67712931   0.46665315   1.91764645 
H   -0.51696962   2.10404546   2.57606888 
H   -0.09787279   2.18833225   0.92061197 
C    1.72170769   0.59480644   0.86148297 
H    0.26949729  -0.53719648   1.94173933 
H    1.12802650   0.64913553   2.89156435 
C    1.58171841  -0.05549241  -0.36543304 
C    2.56791204   0.17060586  -1.33223894 
C    3.59017085   1.10219933  -1.12234921 
C    2.81736291   1.42407399   1.09783189 
C    3.70687072   1.75892225   0.09151892 
H    2.56482475  -0.34548823  -2.28243807 
H    4.31750787   1.31600562  -1.89975206 
H    2.95144665   1.86556408   2.07989603 
H    4.51983913   2.45449941   0.28175319 
Pd   0.04830479  -1.32230210  -0.53458940 
Br  -1.78455370  -3.29055203  -0.83937009 
P    1.45030294  -2.94921669  -0.01279187 
H    1.04482973  -3.56530402   1.18034682 
C    0.26136015  -1.37565460  -3.83282394 
O    1.38479115  -1.74689724  -4.16723699 
O   -0.59438981  -2.01612712  -3.12113147 
O   -0.20019423  -0.15628765  -4.26573931 
H    2.78046993  -2.74874297   0.33888488 
H    1.57863364  -4.11519350  -0.76810572 
H    0.55258241   0.24705168  -4.69648897 
*
