! EnGrad PBEh-3c
%output 
xyzfile=True 
end 
%scf 
maxiter 250 
end
%output
Print[P_Hirshfeld] = 1
end
% maxcore
4000
*xyz -1 1
C   -2.15358021  -0.13180783   0.69365473 
C   -1.85190442   1.03853176   1.39919367 
C   -3.52965083  -0.44029404   0.67724504 
C   -4.53511984   0.42126157   1.12113584 
C   -4.18763504   1.63332365   1.69213090 
C   -2.84715631   1.90483554   1.86162269 
H   -1.95178287  -1.97879227  -1.57538358 
H   -3.86026561  -1.40309393   0.28011318 
H   -2.56871291   2.82698246   2.37823135 
H   -5.58640647   0.16277471   1.00326573 
H   -4.94109993   2.34009062   2.00743113 
C   -0.44515416   1.50127975   1.67019103 
C    0.67048457   0.46765230   1.90796489 
H   -0.49717094   2.13415769   2.54560697 
H   -0.12227358   2.17018830   0.86848346 
C    1.73074551   0.58852183   0.86092011 
H    0.26210829  -0.54109449   1.93435001 
H    1.11834632   0.64660431   2.88414510 
C    1.59562210  -0.04854900  -0.37318239 
C    2.57973196   0.17181534  -1.33874361 
C    3.59757200   1.10100645  -1.12393125 
C    2.81774980   1.42302281   1.09530358 
C    3.71787136   1.73959886   0.09653057 
H    2.57977265  -0.35616479  -2.28371043 
H    4.32559055   1.30845170  -1.89768013 
H    2.94141029   1.86286562   2.07367438 
H    4.51288788   2.45328393   0.28029841 
Pd   0.06156160  -1.30457871  -0.55907582 
Br  -1.78177380  -3.30582091  -0.84115567 
P    1.44983836  -2.95750885   0.00520679 
H    1.02826883  -3.56362559   1.19712510 
C    0.26694343  -1.37894888  -3.84491224 
O    1.40439827  -1.72816714  -4.16820211 
O   -0.56622659  -1.98201592  -3.12203948 
O   -0.17786819  -0.15828395  -4.27499081 
H    2.77689008  -2.74939597   0.36138503 
H    1.58699988  -4.11909358  -0.75785791 
H    0.56419177   0.25433398  -4.72657128 
*
