! EnGrad PBEh-3c
%output 
xyzfile=True 
end 
%scf 
maxiter 250 
end
%output
Print[P_Hirshfeld] = 1
end
% maxcore
4000
*xyz -1 1
C   -2.15444249  -0.13759749   0.69295151 
C   -1.85555239   1.03450724   1.38784692 
C   -3.53513356  -0.44735131   0.68001447 
C   -4.54329977   0.41461995   1.13986240 
C   -4.19252877   1.62796043   1.70134586 
C   -2.84932284   1.89221407   1.88340748 
H   -1.93790180  -1.97951717  -1.50339689 
H   -3.87527422  -1.40881573   0.29305606 
H   -2.56555563   2.81929616   2.38945388 
H   -5.59453490   0.15669962   1.03090818 
H   -4.94286134   2.33940299   2.02083935 
C   -0.44720215   1.50742124   1.64520307 
C    0.66103705   0.46576054   1.89650672 
H   -0.48710873   2.16235108   2.50631263 
H   -0.12938260   2.14982620   0.81664320 
C    1.73231365   0.57994552   0.85866835 
H    0.25078712  -0.54225842   1.92531670 
H    1.10360791   0.64936314   2.87694590 
C    1.60591039  -0.05472150  -0.37474625 
C    2.58636638   0.16433718  -1.34698567 
C    3.60279084   1.09717423  -1.12274616 
C    2.81287439   1.42478833   1.09083047 
C    3.72271135   1.72532109   0.09771052 
H    2.58632723  -0.36303003  -2.28830045 
H    4.32985038   1.30247418  -1.89746631 
H    2.92554162   1.86857587   2.06809115 
H    4.51506036   2.44256115   0.28315508 
Pd   0.06591106  -1.29779682  -0.57136618 
Br  -1.79599603  -3.28031638  -0.85922143 
P    1.44941597  -2.95769482   0.01806993 
H    1.01068918  -3.55991966   1.20810727 
C    0.28101926  -1.37422045  -3.84688064 
O    1.40961585  -1.71175827  -4.17009338 
O   -0.54602351  -1.94653538  -3.11319154 
O   -0.16034037  -0.14847948  -4.29173384 
H    2.77625266  -2.74631733   0.38526061 
H    1.59131609  -4.12123068  -0.74634800 
H    0.57633435   0.25495983  -4.75609256 
*
