! EnGrad PBEh-3c
%output 
xyzfile=True 
end 
%scf 
maxiter 250 
end
%output
Print[P_Hirshfeld] = 1
end
% maxcore
4000
*xyz -1 1
C   -2.15641243  -0.15630090   0.67749022 
C   -1.86627871   1.03932333   1.36912079 
C   -3.54661240  -0.46872599   0.68288260 
C   -4.55097500   0.38030574   1.18763499 
C   -4.20566889   1.60509490   1.74209736 
C   -2.85509620   1.85617070   1.94094552 
H   -1.92971808  -1.94089584  -1.29580596 
H   -3.92082758  -1.42711675   0.32769463 
H   -2.55361073   2.78692254   2.41989685 
H   -5.61496861   0.13122876   1.11957451 
H   -4.95091107   2.33342042   2.07199330 
C   -0.44848104   1.53293679   1.55667009 
C    0.63228036   0.46480109   1.86901140 
H   -0.44774328   2.26343468   2.38247768 
H   -0.15975431   2.07844702   0.64771709 
C    1.73849739   0.55272037   0.85806788 
H    0.20761492  -0.54480254   1.89938575 
H    1.05641070   0.65758184   2.85693340 
C    1.64127412  -0.08443341  -0.37661383 
C    2.60171320   0.14595046  -1.36793647 
C    3.61885107   1.07009280  -1.12979835 
C    2.79235322   1.43383453   1.08147619 
C    3.74147203   1.68372313   0.10566352 
H    2.59728066  -0.39321232  -2.31345513 
H    4.34515166   1.27896687  -1.90305044 
H    2.87248101   1.89258161   2.05696049 
H    4.52461406   2.40634084   0.29200982 
Pd   0.05711577  -1.25612167  -0.61481347 
Br  -1.85364830  -3.26207040  -0.88533414 
P    1.44713298  -2.95368382   0.05847614 
H    0.95649962  -3.55132509   1.24646173 
C    0.32622046  -1.31878118  -3.84391878 
O    1.46230585  -1.67559525  -4.18941959 
O   -0.49097202  -1.84333707  -3.06570997 
O   -0.11110289  -0.10717791  -4.35266303 
H    2.78733615  -2.73948995   0.46549255 
H    1.60921378  -4.13063486  -0.71178237 
H    0.62050057   0.25504660  -4.85797434 
*
