! EnGrad PBEh-3c
%output 
xyzfile=True 
end 
%scf 
maxiter 250 
end
%output
Print[P_Hirshfeld] = 1
end
% maxcore
4000
*xyz -1 1
C   -2.15944248  -0.15203326   0.68275225 
C   -1.86389632   1.03431256   1.37489352 
C   -3.54813133  -0.46164394   0.68484112 
C   -4.55280377   0.39268014   1.17455570 
C   -4.20159527   1.61423120   1.72991310 
C   -2.85322075   1.86619434   1.92599765 
H   -1.92595917  -1.96322724  -1.34741861 
H   -3.90845104  -1.42105889   0.32218929 
H   -2.55877964   2.79759343   2.41104808 
H   -5.61101181   0.14128327   1.09342269 
H   -4.94773805   2.33586792   2.05503116 
C   -0.44931443   1.52079003   1.58192990 
C    0.64095740   0.46417494   1.87450668 
H   -0.46107040   2.23131471   2.41808072 
H   -0.15012649   2.10049353   0.69847601 
C    1.73572274   0.56213186   0.85602682 
H    0.22264340  -0.54399859   1.90579192 
H    1.07002191   0.65459474   2.86115476 
C    1.62997858  -0.07252802  -0.37918129 
C    2.59936583   0.15189460  -1.36058957 
C    3.61408850   1.07962249  -1.12725128 
C    2.79956344   1.42716179   1.08315516 
C    3.73609859   1.69764382   0.10353416 
H    2.59834942  -0.38239786  -2.30355959 
H    4.34106278   1.28761039  -1.89932957 
H    2.88939274   1.88367694   2.05871742 
H    4.52002023   2.41792161   0.28915891 
Pd   0.07026535  -1.27500499  -0.60369582 
Br  -1.83131895  -3.24862572  -0.88545768 
P    1.44701675  -2.95582213   0.04695937 
H    0.97180322  -3.55328794   1.23516418 
C    0.30503216  -1.34094752  -3.84316627 
O    1.44947069  -1.68658539  -4.18447405 
O   -0.50427917  -1.87398761  -3.08540277 
O   -0.12524707  -0.12029201  -4.33418881 
H    2.77945987  -2.74101001   0.44132490 
H    1.60313352  -4.12716508  -0.72063062 
H    0.60651132   0.25631457  -4.82649392 
*
