! EnGrad PBEh-3c
%output 
xyzfile=True 
end 
%scf 
maxiter 250 
end
%output
Print[P_Hirshfeld] = 1
end
% maxcore
4000
*xyz -1 1
C   -2.11821697  -0.05527718   0.68702032 
C   -1.83364725   1.02266088   1.45670355 
C   -3.51844211  -0.38704605   0.56344798 
C   -4.52671811   0.48661815   0.98326726 
C   -4.19014032   1.65573261   1.63019532 
C   -2.86178745   1.93770607   1.84200094 
H   -2.46821041  -1.79280427  -2.11765355 
H   -3.82088653  -1.39499405   0.36993660 
H   -2.61605364   2.94947184   2.14868745 
H   -5.56530275   0.25020653   0.79699448 
H   -4.95683529   2.31372609   2.00985162 
C   -0.44108690   1.50557365   1.89007121 
C    0.75047813   0.46462689   1.97561308 
H   -0.47997815   1.97036588   2.83630666 
H   -0.21691934   2.30632641   1.18063236 
C    1.75169461   0.63870784   0.89091082 
H    0.36361646  -0.53561256   2.00012213 
H    1.25272076   0.59657176   2.93651926 
C    1.56666928   0.07296182  -0.37225167 
C    2.56014604   0.24640906  -1.33787265 
C    3.60325146   1.16478452  -1.11771445 
C    2.88686561   1.41191594   1.12645824 
C    3.73796895   1.78698942   0.09589354 
H    2.59590775  -0.33701872  -2.22372832 
H    4.34383826   1.33353799  -1.90517749 
H    3.08870132   1.77007811   2.13383398 
H    4.44355196   2.60069657   0.23559924 
Pd   0.03082076  -1.26052946  -0.60952236 
Br  -1.58128319  -3.69246533  -0.64847494 
P    1.44698888  -2.99636083  -0.04527947 
H    1.14331861  -3.61409621   1.18939718 
C    0.17461663  -1.53769335  -3.82827728 
O    1.43727282  -1.79901049  -4.16383443 
O   -0.59356966  -2.19821344  -3.27702866 
O   -0.23670333  -0.22898596  -4.16745316 
H    2.79429227  -2.80038870   0.21376283 
H    1.59336284  -4.13042456  -0.84382792 
H    0.45820591   0.27595025  -4.53526056 
*
