! EnGrad PBEh-3c
%output 
xyzfile=True 
end 
%scf 
maxiter 250 
end
%output
Print[P_Hirshfeld] = 1
end
% maxcore
4000
*xyz -1 1
C   -2.05420239  -0.09506799   0.72556696 
C   -1.81222485   1.09680007   1.36176434 
C   -3.48581274  -0.37839612   0.50788050 
C   -4.50659662   0.44736842   1.00785587 
C   -4.18390137   1.70283673   1.54695044 
C   -2.87084365   1.94446783   1.84482491 
H   -2.33880053  -1.91120520  -2.16848404 
H   -3.78351192  -1.38630253   0.24984660 
H   -2.59077437   2.94418374   2.17738965 
H   -5.54226236   0.23606829   0.76542587 
H   -4.94823874   2.33260072   1.96838183 
C   -0.43894817   1.54691567   1.95563968 
C    0.77077494   0.44184097   2.00382434 
H   -0.51650134   1.92592630   2.93539640 
H   -0.16072363   2.33685249   1.26298913 
C    1.76337481   0.61609035   0.92543519 
H    0.36046612  -0.54611261   2.02009511 
H    1.27081960   0.61124175   2.95023511 
C    1.58235951   0.05640437  -0.33907305 
C    2.53062154   0.24227665  -1.34513516 
C    3.56025191   1.17788418  -1.12564814 
C    2.84094736   1.47759329   1.11641792 
C    3.74191653   1.77864662   0.10218790 
H    2.54010143  -0.33018014  -2.24182697 
H    4.30849319   1.33175929  -1.91044592 
H    3.08527738   1.77724976   2.13482018 
H    4.45736636   2.58336498   0.24120617 
Pd  -0.10135766  -1.26253946  -0.55946162 
Br  -1.62195609  -3.61782554  -0.63688682 
P    1.49355695  -2.99385753  -0.07286946 
H    1.17290065  -3.62080024   1.16413260 
C    0.16644417  -1.59203585  -3.90591414 
O    1.42474822  -1.77480500  -4.14085936 
O   -0.70000923  -2.24789784  -3.19640372 
O   -0.26638032  -0.21815253  -4.10997775 
H    2.81968711  -2.78827038   0.16566514 
H    1.56878232  -4.12160798  -0.88401442 
H    0.45982964   0.27818831  -4.49666511 
*
