! EnGrad PBEh-3c
%output 
xyzfile=True 
end 
%scf 
maxiter 250 
end
%output
Print[P_Hirshfeld] = 1
end
% maxcore
4000
*xyz -1 1
C   -2.09836596  -0.06761636   0.69897368 
C   -1.82700413   1.04565154   1.42726277 
C   -3.50832370  -0.38436369   0.54621643 
C   -4.52047841   0.47444675   0.99089222 
C   -4.18820561   1.67033966   1.60438097 
C   -2.86459579   1.93980290   1.84287666 
H   -2.42808023  -1.82952056  -2.13341615 
H   -3.80929661  -1.39229879   0.33269653 
H   -2.60821451   2.94783199   2.15758804 
H   -5.55815789   0.24582224   0.78720502 
H   -4.95416948   2.31957914   1.99699178 
C   -0.44042368   1.51839387   1.91040408 
C    0.75677220   0.45756094   1.98436143 
H   -0.49130404   1.95658510   2.86703452 
H   -0.19949297   2.31579259   1.20617131 
C    1.75531665   0.63169413   0.90161688 
H    0.36263953  -0.53886864   2.00631578 
H    1.25833323   0.60112094   2.94077256 
C    1.57153484   0.06782733  -0.36196294 
C    2.55099045   0.24512760  -1.34012476 
C    3.58991724   1.16884674  -1.12017470 
C    2.87262629   1.43228257   1.12334472 
C    3.73919310   1.78440231   0.09784543 
H    2.57860213  -0.33489807  -2.22934073 
H    4.33287770   1.33298641  -1.90681123 
H    3.08763955   1.77230205   2.13413980 
H    4.44783582   2.59532202   0.23733795 
Pd  -0.01016794  -1.26115276  -0.59399846 
Br  -1.59389591  -3.66931943  -0.64488145 
P    1.46142970  -2.99558455  -0.05383517 
H    1.15249204  -3.61617514   1.18156260 
C    0.17208234  -1.55454503  -3.85235258 
O    1.43338893  -1.79150434  -4.15670983 
O   -0.62657672  -2.21362064  -3.25202676 
O   -0.24590621  -0.22562649  -4.14962996 
H    2.80216724  -2.79663080   0.19884768 
H    1.58574039  -4.12769053  -0.85628981 
H    0.45870943   0.27664427  -4.52329206 
*
