! EnGrad PBEh-3c
%output 
xyzfile=True 
end 
%scf 
maxiter 250 
end
%output
Print[P_Hirshfeld] = 1
end
% maxcore
4000
*xyz -1 1
C   -2.02878264  -0.13331873   0.73034631 
C   -1.80029296   1.15655053   1.33339365 
C   -3.45234882  -0.37146919   0.49810592 
C   -4.48705107   0.42405978   1.01676443 
C   -4.18324526   1.71775289   1.50610224 
C   -2.86316978   1.95076495   1.83145237 
H   -2.22801694  -1.99441312  -2.18054998 
H   -3.76216820  -1.38364578   0.17035963 
H   -2.57418946   2.93504449   2.20671382 
H   -5.53150759   0.22266406   0.75524631 
H   -4.94685101   2.34914609   1.94299128 
C   -0.42820062   1.54576121   1.95408031 
C    0.76395711   0.44963482   2.02214021 
H   -0.54407306   1.91284915   3.00030872 
H   -0.11922101   2.35352689   1.30384494 
C    1.77142648   0.60583654   0.93584381 
H    0.35149682  -0.56008012   2.02918851 
H    1.27914913   0.62168022   2.96006930 
C    1.57663580   0.02678786  -0.32097589 
C    2.51852050   0.24701650  -1.33669450 
C    3.53975311   1.17669085  -1.13914724 
C    2.81804053   1.51572195   1.11487484 
C    3.73711170   1.77755456   0.10641532 
H    2.50481226  -0.33070022  -2.26391886 
H    4.28458506   1.33119786  -1.91123940 
H    3.07730776   1.78673508   2.13342353 
H    4.47134578   2.56607941   0.24696537 
Pd  -0.17480157  -1.26379271  -0.51593506 
Br  -1.65845588  -3.55146302  -0.64593284 
P    1.50382611  -2.98327341  -0.08888913 
H    1.18659491  -3.62162479   1.14560012 
C    0.16642982  -1.61839833  -3.91379728 
O    1.35984186  -1.76271565  -4.12253607 
O   -0.72087930  -2.23554393  -3.18247363 
O   -0.28326315  -0.23608549  -4.07975454 
H    2.84768120  -2.77834615   0.14496912 
H    1.55512155  -4.12068638  -0.90570460 
H    0.46657604   0.27503782  -4.47995005 
*
