! EnGrad PBEh-3c
%output 
xyzfile=True 
end 
%scf 
maxiter 250 
end
%output
Print[P_Hirshfeld] = 1
end
% maxcore
4000
*xyz -1 1
C   -2.07557647  -0.08913479   0.70924865 
C   -1.81825586   1.08197249   1.39651934 
C   -3.48999116  -0.38014057   0.53045958 
C   -4.50953049   0.45794433   0.99936572 
C   -4.18658103   1.68586815   1.57219333 
C   -2.86412875   1.94339312   1.83913504 
H   -2.36255675  -1.88352514  -2.14885313 
H   -3.79386141  -1.38946481   0.27952896 
H   -2.59707084   2.94364391   2.17367741 
H   -5.54942955   0.23823762   0.77673810 
H   -4.95177258   2.32926272   1.97930587 
C   -0.43642046   1.52735705   1.92470865 
C    0.75912536   0.45496503   1.99673450 
H   -0.50858662   1.94226098   2.91068366 
H   -0.17320280   2.32815109   1.23816077 
C    1.76059284   0.62322541   0.91282667 
H    0.35899014  -0.54581569   2.01380691 
H    1.26515072   0.60785439   2.94709251 
C    1.57320548   0.05438634  -0.34853912 
C    2.54035610   0.24574624  -1.33900130 
C    3.57348780   1.17141580  -1.12638847 
C    2.85474871   1.45961012   1.12057072 
C    3.73851141   1.78215958   0.10065219 
H    2.55443493  -0.33352321  -2.24066554 
H    4.31706120   1.33240064  -1.90826152 
H    3.08425575   1.77702906   2.13390521 
H    4.45553566   2.58574466   0.24049107 
Pd  -0.06408772  -1.26201738  -0.56843162 
Br  -1.61504019  -3.63071984  -0.64522579 
P    1.47531511  -2.99155248  -0.06531582 
H    1.16366120  -3.61795997   1.16978439 
C    0.17023106  -1.57545786  -3.87247656 
O    1.40930125  -1.78207565  -4.14551745 
O   -0.65746211  -2.22080082  -3.22924715 
O   -0.25814112  -0.22905196  -4.12674480 
H    2.81707369  -2.79064232   0.18120171 
H    1.57571230  -4.12539657  -0.87247383 
H    0.46128585   0.27611814  -4.50909695 
*
