! EnGrad PBEh-3c
%output 
xyzfile=True 
end 
%scf 
maxiter 250 
end
%output
Print[P_Hirshfeld] = 1
end
% maxcore
4000
*xyz -1 1
C   -2.06612008  -0.09027592   0.71881760 
C   -1.81733671   1.08599478   1.37853143 
C   -3.47546121  -0.39393230   0.53728383 
C   -4.50452410   0.45402016   1.01070830 
C   -4.18879016   1.68228150   1.56075811 
C   -2.85833451   1.95202421   1.82866907 
H   -2.28615284  -1.92350441  -2.13210017 
H   -3.78560904  -1.38469036   0.24421300 
H   -2.58796067   2.93371832   2.19872163 
H   -5.54458870   0.22817385   0.78263034 
H   -4.95178390   2.33861219   1.96973288 
C   -0.43300693   1.53229674   1.92340784 
C    0.74991188   0.45620032   1.99813493 
H   -0.52126890   1.94076891   2.91066938 
H   -0.14993976   2.32896234   1.23883168 
C    1.76112053   0.61716898   0.91321001 
H    0.35156216  -0.54933032   2.01296404 
H    1.26223929   0.61607623   2.94962909 
C    1.57034360   0.03326503  -0.33860480 
C    2.53613310   0.23773797  -1.34213169 
C    3.56916210   1.17130595  -1.12491643 
C    2.84512292   1.47572998   1.11760528 
C    3.73339603   1.78058365   0.09782437 
H    2.54033960  -0.33167243  -2.24919862 
H    4.30908749   1.33223632  -1.90997073 
H    3.07528623   1.78577812   2.13291039 
H    4.46699191   2.57224673   0.24586210 
Pd  -0.09615498  -1.26746518  -0.54679002 
Br  -1.63798712  -3.58387741  -0.66376295 
P    1.47548204  -2.98403872  -0.07003263 
H    1.16251051  -3.61504433   1.16126170 
C    0.14410835  -1.57089685  -3.85237088 
O    1.39057694  -1.78274514  -4.14477368 
O   -0.65395919  -2.20091870  -3.22676759 
O   -0.24779342  -0.23015686  -4.12999503 
H    2.83099168  -2.78447390   0.18178118 
H    1.57024144  -4.12581281  -0.87570314 
H    0.45746546   0.26601978  -4.50545423 
*
