! EnGrad PBEh-3c
%output 
xyzfile=True 
end 
%scf 
maxiter 250 
end
%output
Print[P_Hirshfeld] = 1
end
% maxcore
4000
*xyz -1 1
C   -2.05305172  -0.11718250   0.73780649 
C   -1.81134321   1.12221808   1.34067023 
C   -3.43121239  -0.43232758   0.59088967 
C   -4.48419072   0.41326811   1.04830093 
C   -4.18662677   1.68275770   1.54803298 
C   -2.84517495   1.96851791   1.77787766 
H   -1.97314288  -2.07074097  -2.02232379 
H   -3.76244204  -1.37697701   0.11964779 
H   -2.55134413   2.89292564   2.30744313 
H   -5.52951934   0.18651742   0.82358642 
H   -4.95012848   2.37008399   1.93733276 
C   -0.42209837   1.53851606   1.88287730 
C    0.71257071   0.46646109   1.99757506 
H   -0.56810920   1.95472848   2.88074035 
H   -0.06308803   2.31772386   1.20976729 
C    1.75904593   0.59686397   0.91259931 
H    0.31697047  -0.56031126   2.00142606 
H    1.23750334   0.64878870   2.95026339 
C    1.56663842  -0.05335843  -0.31516436 
C    2.52459641   0.20740951  -1.33880626 
C    3.55272418   1.15327986  -1.13063583 
C    2.80574007   1.52401647   1.10397865 
C    3.71732826   1.78402715   0.09570648 
H    2.49441039  -0.32951347  -2.28928419 
H    4.28426666   1.33182781  -1.91438825 
H    3.03355548   1.82496715   2.12645353 
H    4.51351750   2.51156049   0.26830543 
Pd  -0.20169446  -1.29405224  -0.46624161 
Br  -1.73294770  -3.38528551  -0.75877542 
P    1.47692075  -2.95220974  -0.08258955 
H    1.14441673  -3.59924909   1.13280801 
C    0.19052061  -1.46126988  -3.85407622 
O    1.29307019  -1.78579444  -4.13442092 
O   -0.72508451  -2.17899244  -3.14600106 
O   -0.24846649  -0.24377722  -4.13844714 
H    2.87341392  -2.76041528   0.20072411 
H    1.55196165  -4.12715053  -0.87450335 
H    0.48184096   0.23755861  -4.52309556 
*
