9
Coordinates from ORCA-job reaction-6-cineb10_optts_Compound_2_IRC_Full E -1539.031275891377
  Pt     -0.498951     -0.675117      0.322112
  Cl      0.029460     -0.023447      2.491684
  Cl     -2.460479     -1.771172      1.100191
  Cl     -0.989405     -1.294462     -1.866142
  C       0.606477      0.909480     -0.409283
  H       1.342134      1.259225      0.314111
  H       0.940059     -1.033571      0.103804
  H       1.096594      0.684576     -1.356234
  H      -0.126457      1.701760     -0.579571
9
Coordinates from ORCA-job reaction-6-cineb10_optts_Compound_2_IRC_Full E -1539.031191402760
  Pt     -0.501685     -0.675350      0.321901
  Cl      0.022747     -0.022752      2.492203
  Cl     -2.459223     -1.775660      1.098502
  Cl     -0.990890     -1.296143     -1.866286
  C       0.608564      0.907967     -0.409291
  H       1.343825      1.256718      0.315160
  H       0.941628     -1.018578      0.099978
  H       1.100213      0.682007     -1.355299
  H      -0.123329      1.700648     -0.580908
9
Coordinates from ORCA-job reaction-6-cineb10_optts_Compound_2_IRC_Full E -1539.031089111017
  Pt     -0.503288     -0.675604      0.321592
  Cl      0.016538     -0.022401      2.492856
  Cl     -2.458459     -1.779821      1.097245
  Cl     -0.992615     -1.297828     -1.866293
  C       0.610677      0.906163     -0.409203
  H       1.345583      1.254152      0.316053
  H       0.942105     -1.003220      0.096100
  H       1.103674      0.679510     -1.354406
  H      -0.120397      1.699114     -0.581940
9
Coordinates from ORCA-job reaction-6-cineb10_optts_Compound_2_IRC_Full E -1539.030967344617
  Pt     -0.506491     -0.676051      0.321762
  Cl      0.010745     -0.022266      2.493546
  Cl     -2.457744     -1.783671      1.096173
  Cl     -0.994398     -1.299488     -1.866204
  C       0.613086      0.904359     -0.409145
  H       1.347499      1.251582      0.316829
  H       0.943232     -0.987695      0.091899
  H       1.107154      0.677090     -1.353601
  H      -0.117594      1.697180     -0.582740
9
Coordinates from ORCA-job reaction-6-cineb10_optts_Compound_2_IRC_Full E -1539.030828952993
  Pt     -0.508246     -0.676463      0.321679
  Cl      0.005297     -0.022300      2.494311
  Cl     -2.457460     -1.787388      1.095395
  Cl     -0.996259     -1.301126     -1.866067
  C       0.615385      0.902176     -0.408968
  H       1.349578      1.249107      0.317578
  H       0.942979     -0.971921      0.087817
  H       1.110637      0.674782     -1.352958
  H      -0.114983      1.694968     -0.583343
9
Coordinates from ORCA-job reaction-6-cineb10_optts_Compound_2_IRC_Full E -1539.030671979179
  Pt     -0.511928     -0.677028      0.322111
  Cl      0.000192     -0.022444      2.495057
  Cl     -2.457133     -1.790905      1.094693
  Cl     -0.998044     -1.302726     -1.865900
  C       0.617930      0.900239     -0.408949
  H       1.351794      1.246684      0.318219
  H       0.943551     -0.956143      0.083465
  H       1.114180      0.672610     -1.352352
  H      -0.112337      1.692244     -0.583729
9
Coordinates from ORCA-job reaction-6-cineb10_optts_Compound_2_IRC_Full E -1539.030500789842
  Pt     -0.513837     -0.677483      0.322160
  Cl     -0.004640     -0.022679      2.495854
  Cl     -2.457232     -1.794394      1.094231
  Cl     -0.999831     -1.304298     -1.865727
  C       0.620424      0.897788     -0.408720
  H       1.354144      1.244421      0.318846
  H       0.942495     -0.940214      0.079347
  H       1.117771      0.670586     -1.351960
  H      -0.109962      1.689410     -0.583993
9
Coordinates from ORCA-job reaction-6-cineb10_optts_Compound_2_IRC_Full E -1539.030311771083
  Pt     -0.518028     -0.678083      0.322772
  Cl     -0.009179     -0.022975      2.496602
  Cl     -2.457234     -1.797772      1.093788
  Cl     -1.001464     -1.305838     -1.865560
  C       0.623586      0.895528     -0.408640
  H       1.356504      1.242203      0.319251
  H       0.942402     -0.924278      0.074950
  H       1.121404      0.668770     -1.351505
  H      -0.107641      1.686162     -0.584089
9
Coordinates from ORCA-job reaction-6-cineb10_optts_Compound_2_IRC_Full E -1539.030111205934
  Pt     -0.520351     -0.678512      0.322950
  Cl     -0.013480     -0.023323      2.497382
  Cl     -2.457646     -1.801187      1.093549
  Cl     -1.003045     -1.307353     -1.865414
  C       0.626497      0.892821     -0.408397
  H       1.359058      1.240221      0.319726
  H       0.940607     -0.908300      0.070857
  H       1.125131      0.667121     -1.351319
  H      -0.105507      1.682771     -0.584070
9
Coordinates from ORCA-job reaction-6-cineb10_optts_Compound_2_IRC_Full E -1539.029895448415
  Pt     -0.525080     -0.679051      0.323699
  Cl     -0.017464     -0.023708      2.498090
  Cl     -2.457939     -1.804544      1.093304
  Cl     -1.004386     -1.308836     -1.865312
  C       0.629738      0.890507     -0.408377
  H       1.361721      1.238398      0.320070
  H       0.939756     -0.892435      0.066539
  H       1.128977      0.665728     -1.351181
  H      -0.103236      1.678759     -0.583840
9
Coordinates from ORCA-job reaction-6-cineb10_optts_Compound_2_IRC_Full E -1539.029670036574
  Pt     -0.528143     -0.679359      0.324013
  Cl     -0.021228     -0.024131      2.498825
  Cl     -2.458618     -1.808019      1.093242
  Cl     -1.005622     -1.310316     -1.865261
  C       0.633236      0.887580     -0.408139
  H       1.364434      1.236829      0.320380
  H       0.937192     -0.876529      0.062544
  H       1.132876      0.664586     -1.351266
  H      -0.101297      1.674735     -0.583534
9
Coordinates from ORCA-job reaction-6-cineb10_optts_Compound_2_IRC_Full E -1539.029433752715
  Pt     -0.533362     -0.679659      0.324800
  Cl     -0.024596     -0.024571      2.499516
  Cl     -2.459152     -1.811466      1.093163
  Cl     -1.006538     -1.311786     -1.865336
  C       0.636843      0.885031     -0.408159
  H       1.367288      1.235639      0.320710
  H       0.935233     -0.860990      0.058492
  H       1.136884      0.663793     -1.351605
  H      -0.099108      1.669986     -0.582974
9
Coordinates from ORCA-job reaction-6-cineb10_optts_Compound_2_IRC_Full E -1539.029189847946
  Pt     -0.537384     -0.679565      0.325184
  Cl     -0.027631     -0.025025      2.500348
  Cl     -2.459928     -1.815054      1.093217
  Cl     -1.007265     -1.313320     -1.865635
  C       0.641020      0.881806     -0.407977
  H       1.370004      1.234932      0.321033
  H       0.931518     -0.845618      0.054855
  H       1.140823      0.663431     -1.352331
  H      -0.097072      1.665015     -0.582264
9
Coordinates from ORCA-job reaction-6-cineb10_optts_Compound_2_IRC_Full E -1539.028951185375
  Pt     -0.544101     -0.680619      0.326532
  Cl     -0.029888     -0.025301      2.501217
  Cl     -2.459711     -1.817850      1.092913
  Cl     -1.007574     -1.314692     -1.866292
  C       0.646294      0.878895     -0.408093
  H       1.372341      1.234933      0.321502
  H       0.928417     -0.832301      0.051683
  H       1.144277      0.663541     -1.353513
  H      -0.095503      1.660652     -0.581565
9
Coordinates from ORCA-job reaction-6-cineb10_optts_Compound_2_IRC_Full E -1539.028740769418
  Pt     -0.551268     -0.682761      0.328445
  Cl     -0.031115     -0.025339      2.501866
  Cl     -2.458568     -1.819202      1.092296
  Cl     -1.007560     -1.315565     -1.867009
  C       0.650066      0.877354     -0.408423
  H       1.374251      1.235482      0.322317
  H       0.926582     -0.823636      0.049591
  H       1.146827      0.663740     -1.355095
  H      -0.094386      1.657695     -0.581056
9
Coordinates from ORCA-job reaction-6-cineb10_optts_Compound_2_IRC_Full E -1539.028455585232
  Pt     -0.559860     -0.685633      0.330995
  Cl     -0.031622     -0.025218      2.502243
  Cl     -2.456650     -1.819423      1.091414
  Cl     -1.007319     -1.316026     -1.867649
  C       0.653491      0.876649     -0.408901
  H       1.375541      1.236140      0.323060
  H       0.926973     -0.818648      0.048085
  H       1.148480      0.663962     -1.356463
  H      -0.094057      1.656358     -0.580846
9
Coordinates from ORCA-job reaction-6-cineb10_optts_Compound_2_IRC_Full E -1539.027135975396
  Pt     -0.561939     -0.686667      0.331769
  Cl     -0.031354     -0.025133      2.502401
  Cl     -2.454061     -1.819128      1.090763
  Cl     -1.007210     -1.316119     -1.867966
  C       0.677006      0.873312     -0.412627
  H       1.387253      1.267686      0.311763
  H       0.933680     -0.617302     -0.016109
  H       1.164286      0.703144     -1.371980
  H      -0.110449      1.614197     -0.566845
9
Coordinates from ORCA-job reaction-6-cineb10_optts_Compound_2_IRC_Full E -1539.029172016534
  Pt     -0.564018     -0.687702      0.332544
  Cl     -0.031087     -0.025049      2.502560
  Cl     -2.451471     -1.818833      1.090112
  Cl     -1.007101     -1.316211     -1.868284
  C       0.700520      0.869975     -0.416353
  H       1.398965      1.299233      0.300465
  H       0.940386     -0.415957     -0.080302
  H       1.180092      0.742326     -1.387496
  H      -0.126841      1.572035     -0.552843
9
Coordinates from ORCA-job reaction-6-cineb10_optts_Compound_2_IRC_Full E -1539.031333122951
  Pt     -0.598273     -0.706825      0.346134
  Cl     -0.030082     -0.025953      2.503736
  Cl     -2.448602     -1.822859      1.092439
  Cl     -1.008644     -1.317020     -1.868076
  C       0.722375      0.869061     -0.420439
  H       1.406628      1.307993      0.301760
  H       0.930382     -0.391618     -0.085865
  H       1.186663      0.749374     -1.398132
  H      -0.120936      1.555795     -0.548257
9
Coordinates from ORCA-job reaction-6-cineb10_optts_Compound_2_IRC_Full E -1539.034073128773
  Pt     -0.617432     -0.712276      0.352512
  Cl     -0.033056     -0.029546      2.506467
  Cl     -2.458212     -1.837284      1.101450
  Cl     -1.013926     -1.320211     -1.866039
  C       0.747637      0.859603     -0.422612
  H       1.417421      1.314658      0.298673
  H       0.912810     -0.345098     -0.096713
  H       1.197372      0.757775     -1.406049
  H      -0.112750      1.527246     -0.540210
9
Coordinates from ORCA-job reaction-6-cineb10_optts_Compound_2_IRC_Full E -1539.036827084390
  Pt     -0.648104     -0.723202      0.363116
  Cl     -0.038651     -0.033904      2.508910
  Cl     -2.465954     -1.851495      1.110024
  Cl     -1.020873     -1.323801     -1.862556
  C       0.773113      0.858175     -0.428063
  H       1.432577      1.321172      0.296231
  H       0.905136     -0.300085     -0.109461
  H       1.211458      0.765404     -1.414319
  H      -0.108527      1.499350     -0.532090
9
Coordinates from ORCA-job reaction-6-cineb10_optts_Compound_2_IRC_Full E -1539.039110727699
  Pt     -0.669042     -0.729007      0.369953
  Cl     -0.048743     -0.039987      2.512036
  Cl     -2.480225     -1.871410      1.122170
  Cl     -1.031357     -1.328841     -1.857185
  C       0.797596      0.862852     -0.434088
  H       1.451216      1.330934      0.292413
  H       0.894769     -0.262381     -0.119489
  H       1.229363      0.776573     -1.425739
  H      -0.103320      1.468923     -0.523353
9
Coordinates from ORCA-job reaction-6-cineb10_optts_Compound_2_IRC_Full E -1539.040855376884
  Pt     -0.700435     -0.740144      0.380737
  Cl     -0.063142     -0.047340      2.515778
  Cl     -2.488653     -1.890290      1.133049
  Cl     -1.045726     -1.335072     -1.849940
  C       0.822552      0.871900     -0.441976
  H       1.472014      1.344070      0.285869
  H       0.893914     -0.238879     -0.127083
  H       1.249143      0.791966     -1.437068
  H      -0.099674      1.446328     -0.516813
9
Coordinates from ORCA-job reaction-6-cineb10_optts_Compound_2_IRC_Full E -1539.042113914400
  Pt     -0.715161     -0.743346      0.385411
  Cl     -0.084035     -0.056574      2.521230
  Cl     -2.503711     -1.915806      1.147816
  Cl     -1.066229     -1.343416     -1.840509
  C       0.844183      0.878214     -0.447879
  H       1.490886      1.358149      0.274710
  H       0.893845     -0.219356     -0.133113
  H       1.268140      0.810919     -1.446167
  H      -0.088983      1.426682     -0.511848
9
Coordinates from ORCA-job reaction-6-cineb10_optts_Compound_2_IRC_Full E -1539.042449031376
  Pt     -0.725091     -0.748723      0.389360
  Cl     -0.090543     -0.058999      2.523183
  Cl     -2.502492     -1.920066      1.149763
  Cl     -1.072995     -1.345888     -1.837773
  C       0.849341      0.880253     -0.448699
  H       1.496429      1.362195      0.272279
  H       0.897290     -0.216446     -0.134708
  H       1.273548      0.815553     -1.449862
  H      -0.087002      1.424959     -0.511510
9
Coordinates from ORCA-job reaction-6-cineb10_optts_Compound_2_IRC_Full E -1539.042639916811
  Pt     -0.728734     -0.750591      0.390877
  Cl     -0.094665     -0.060560      2.524407
  Cl     -2.503253     -1.923679      1.151579
  Cl     -1.077259     -1.347452     -1.836045
  C       0.853442      0.880536     -0.450949
  H       1.499655      1.364668      0.270956
  H       0.898793     -0.214115     -0.135671
  H       1.276023      0.818461     -1.450448
  H      -0.085823      1.423870     -0.511191
9
Coordinates from ORCA-job reaction-6-cineb10_optts_Compound_2_IRC_Full E -1539.042901103024
  Pt     -0.733949     -0.753279      0.393044
  Cl     -0.101111     -0.062988      2.526334
  Cl     -2.504689     -1.929529      1.154515
  Cl     -1.083977     -1.349900     -1.833337
  C       0.859089      0.881473     -0.453718
  H       1.504523      1.368351      0.268747
  H       0.901155     -0.210526     -0.137165
  H       1.280039      0.822864     -1.451852
  H      -0.083398      1.421922     -0.510703
9
Coordinates from ORCA-job reaction-6-cineb10_optts_Compound_2_IRC_Full E -1539.043157038291
  Pt     -0.739210     -0.756029      0.395211
  Cl     -0.108136     -0.065615      2.528436
  Cl     -2.506328     -1.936036      1.157744
  Cl     -1.091375     -1.352564     -1.830359
  C       0.864144      0.883349     -0.455305
  H       1.509532      1.372046      0.266027
  H       0.903760     -0.206868     -0.138736
  H       1.284734      0.827445     -1.454320
  H      -0.080006      1.419510     -0.510216
9
Coordinates from ORCA-job reaction-6-cineb10_optts_Compound_2_IRC_Full E -1539.043388837089
  Pt     -0.743887     -0.758563      0.397217
  Cl     -0.115312     -0.068278      2.530552
  Cl     -2.507691     -1.942642      1.160896
  Cl     -1.099037     -1.355245     -1.827240
  C       0.869890      0.884497     -0.457231
  H       1.514492      1.375706      0.263335
  H       0.906076     -0.203445     -0.140150
  H       1.289143      0.831986     -1.456299
  H      -0.077177      1.417739     -0.509819
9
Coordinates from ORCA-job reaction-6-cineb10_optts_Compound_2_IRC_Full E -1539.043603030145
  Pt     -0.748711     -0.761251      0.399300
  Cl     -0.122529     -0.070919      2.532742
  Cl     -2.508626     -1.949260      1.163910
  Cl     -1.106915     -1.357933     -1.824089
  C       0.874442      0.886426     -0.458623
  H       1.519425      1.379157      0.260588
  H       0.908585     -0.200394     -0.141489
  H       1.293697      0.836296     -1.458672
  H      -0.073538      1.415805     -0.509463
9
Coordinates from ORCA-job reaction-6-cineb10_optts_Compound_2_IRC_Full E -1539.043802098334
  Pt     -0.753444     -0.763969      0.401409
  Cl     -0.129764     -0.073541      2.534998
  Cl     -2.509470     -1.956123      1.166925
  Cl     -1.114990     -1.360616     -1.820917
  C       0.879856      0.887628     -0.460391
  H       1.524302      1.382532      0.257935
  H       0.911162     -0.197197     -0.142873
  H       1.297950      0.840486     -1.460585
  H      -0.070496      1.414524     -0.509188
9
Coordinates from ORCA-job reaction-6-cineb10_optts_Compound_2_IRC_Full E -1539.043987725919
  Pt     -0.758315     -0.766827      0.403592
  Cl     -0.136968     -0.076141      2.537287
  Cl     -2.510195     -1.963212      1.169922
  Cl     -1.123216     -1.363268     -1.817724
  C       0.884384      0.889517     -0.461841
  H       1.529189      1.385751      0.255298
  H       0.913943     -0.194274     -0.144219
  H       1.302299      0.844472     -1.462808
  H      -0.066800      1.413091     -0.508929
9
Coordinates from ORCA-job reaction-6-cineb10_optts_Compound_2_IRC_Full E -1539.044158971681
  Pt     -0.763113     -0.769727      0.405791
  Cl     -0.144039     -0.078699      2.539557
  Cl     -2.510890     -1.970533      1.172902
  Cl     -1.131478     -1.365840     -1.814541
  C       0.889571      0.890701     -0.463482
  H       1.533988      1.388878      0.252766
  H       0.916709     -0.191220     -0.145596
  H       1.306375      0.848316     -1.464710
  H      -0.063658      1.412198     -0.508726
9
Coordinates from ORCA-job reaction-6-cineb10_optts_Compound_2_IRC_Full E -1539.044319260229
  Pt     -0.768114     -0.772781      0.408078
  Cl     -0.151081     -0.081273      2.541833
  Cl     -2.511518     -1.978171      1.175892
  Cl     -1.139892     -1.368371     -1.811319
  C       0.894049      0.892608     -0.465010
  H       1.538823      1.391880      0.250215
  H       0.919619     -0.188476     -0.146913
  H       1.310516      0.852028     -1.466780
  H      -0.059890      1.411078     -0.508500
9
Coordinates from ORCA-job reaction-6-cineb10_optts_Compound_2_IRC_Full E -1539.044465521917
  Pt     -0.773020     -0.775851      0.410348
  Cl     -0.157870     -0.083805      2.544033
  Cl     -2.512139     -1.985996      1.178829
  Cl     -1.148202     -1.370772     -1.808160
  C       0.898989      0.893626     -0.466464
  H       1.543564      1.394795      0.247806
  H       0.922440     -0.185534     -0.148274
  H       1.314435      0.855582     -1.468719
  H      -0.056736      1.410454     -0.508314
9
Coordinates from ORCA-job reaction-6-cineb10_optts_Compound_2_IRC_Full E -1539.044603087341
  Pt     -0.778200     -0.779128      0.412731
  Cl     -0.164652     -0.086401      2.546236
  Cl     -2.512718     -1.994214      1.181785
  Cl     -1.156683     -1.373133     -1.804964
  C       0.903708      0.895578     -0.468166
  H       1.548241      1.397512      0.245259
  H       0.925382     -0.183037     -0.149531
  H       1.318267      0.859046     -1.470463
  H      -0.053082      1.409590     -0.508069
9
Coordinates from ORCA-job reaction-6-cineb10_optts_Compound_2_IRC_Full E -1539.044728061653
  Pt     -0.783293     -0.782415      0.415068
  Cl     -0.171146     -0.088992      2.548340
  Cl     -2.513319     -2.002613      1.184666
  Cl     -1.164993     -1.375345     -1.801869
  C       0.908089      0.896501     -0.469431
  H       1.553022      1.400285      0.243026
  H       0.928255     -0.180233     -0.150878
  H       1.322092      0.862359     -1.472547
  H      -0.049787      1.409027     -0.507839
9
Coordinates from ORCA-job reaction-6-cineb10_optts_Compound_2_IRC_Full E -1539.044845389803
  Pt     -0.788629     -0.785917      0.417489
  Cl     -0.177608     -0.091693      2.550430
  Cl     -2.513907     -2.011419      1.187540
  Cl     -1.173422     -1.377504     -1.798773
  C       0.912906      0.897965     -0.470876
  H       1.557552      1.402769      0.240520
  H       0.931189     -0.177685     -0.152175
  H       1.325696      0.865612     -1.474263
  H      -0.046404      1.408406     -0.507554
9
Coordinates from ORCA-job reaction-6-cineb10_optts_Compound_2_IRC_Full E -1539.044953458017
  Pt     -0.794041     -0.789527      0.419915
  Cl     -0.183918     -0.094495      2.552454
  Cl     -2.514536     -2.020528      1.190356
  Cl     -1.181794     -1.379563     -1.795748
  C       0.917172      0.899052     -0.472176
  H       1.562307      1.405366      0.238335
  H       0.934160     -0.175176     -0.153482
  H       1.329350      0.868777     -1.476311
  H      -0.043095      1.407829     -0.507224
9
Coordinates from ORCA-job reaction-6-cineb10_optts_Compound_2_IRC_Full E -1539.045053474201
  Pt     -0.799609     -0.793311      0.422360
  Cl     -0.190107     -0.097438      2.554428
  Cl     -2.515174     -2.029931      1.193084
  Cl     -1.190121     -1.381534     -1.792801
  C       0.921636      0.900540     -0.473633
  H       1.566716      1.407634      0.235895
  H       0.937173     -0.172807     -0.154778
  H       1.332684      0.871864     -1.477890
  H      -0.039607      1.407091     -0.506817
9
Coordinates from ORCA-job reaction-6-cineb10_optts_Compound_2_IRC_Full E -1539.045145427082
  Pt     -0.805247     -0.797225      0.424791
  Cl     -0.196153     -0.100546      2.556327
  Cl     -2.515869     -2.039591      1.195700
  Cl     -1.198332     -1.383409     -1.789965
  C       0.925850      0.901585     -0.474885
  H       1.571361      1.410070      0.233842
  H       0.940215     -0.170654     -0.156041
  H       1.336088      0.874883     -1.479952
  H      -0.036606      1.406540     -0.506359
9
Coordinates from ORCA-job reaction-6-cineb10_optts_Compound_2_IRC_Full E -1539.045230641272
  Pt     -0.810971     -0.801299      0.427191
  Cl     -0.202142     -0.103874      2.558197
  Cl     -2.516636     -2.049569      1.198208
  Cl     -1.206504     -1.385222     -1.787221
  C       0.930084      0.902635     -0.476154
  H       1.575515      1.412107      0.231342
  H       0.943330     -0.168024     -0.157490
  H       1.339089      0.877901     -1.481328
  H      -0.033040      1.405614     -0.505805
9
Coordinates from ORCA-job reaction-6-cineb10_optts_Compound_2_IRC_Full E -1539.045308742117
  Pt     -0.816839     -0.805556      0.429590
  Cl     -0.207959     -0.107414      2.559966
  Cl     -2.517439     -2.059650      1.200499
  Cl     -1.214428     -1.386930     -1.784652
  C       0.934300      0.903846     -0.477484
  H       1.580092      1.414481      0.229555
  H       0.946504     -0.166594     -0.158625
  H       1.342239      0.880818     -1.483512
  H      -0.030625      1.405073     -0.505175
9
Coordinates from ORCA-job reaction-6-cineb10_optts_Compound_2_IRC_Full E -1539.045379836931
  Pt     -0.822569     -0.809850      0.431840
  Cl     -0.213685     -0.111186      2.561705
  Cl     -2.518376     -2.069890      1.202624
  Cl     -1.222176     -1.388574     -1.782228
  C       0.938245      0.904467     -0.478581
  H       1.583799      1.416238      0.226985
  H       0.949725     -0.163711     -0.160236
  H       1.344764      0.883776     -1.484537
  H      -0.027034      1.403844     -0.504445
9
Coordinates from ORCA-job reaction-6-cineb10_optts_Compound_2_IRC_Full E -1539.045442692058
  Pt     -0.828492     -0.814334      0.434131
  Cl     -0.219154     -0.115106      2.563301
  Cl     -2.519256     -2.079866      1.204425
  Cl     -1.229485     -1.390098     -1.780041
  C       0.942170      0.905642     -0.479852
  H       1.588592      1.418893      0.225982
  H       0.952984     -0.163480     -0.161087
  H       1.347860      0.886572     -1.487479
  H      -0.025862      1.403545     -0.503663
9
Coordinates from ORCA-job reaction-6-cineb10_optts_Compound_2_IRC_Full E -1539.045466696208
  Pt     -0.830522     -0.815957      0.434862
  Cl     -0.221229     -0.116703      2.563919
  Cl     -2.519743     -2.083765      1.205074
  Cl     -1.232201     -1.390664     -1.779261
  C       0.943956      0.905516     -0.480418
  H       1.589448      1.419214      0.224643
  H       0.954221     -0.161764     -0.161908
  H       1.348322      0.887703     -1.487017
  H      -0.024269      1.402842     -0.503313
9
Coordinates from ORCA-job reaction-6-cineb10_optts_Compound_2_IRC_Full E -1539.045477852415
  Pt     -0.831451     -0.816677      0.435191
  Cl     -0.222092     -0.117386      2.564168
  Cl     -2.519921     -2.085382      1.205322
  Cl     -1.233325     -1.390897     -1.778944
  C       0.944149      0.905849     -0.480399
  H       1.590056      1.419508      0.224316
  H       0.954790     -0.161527     -0.162125
  H       1.348780      0.888152     -1.487437
  H      -0.023591      1.402506     -0.503166
