21
	Energy:      39.8778407
Sc         1.99970        2.60802        4.98148
C          1.77429        2.69704        6.97629
N          0.96403        1.87744        7.66863
C          1.07795        2.23340        8.96267
C          1.97348        3.28283        9.04108
N          2.40149        3.56438        7.79330
C          3.35859        4.59175        7.40499
H          3.71514        5.14851        8.29853
H          2.87926        5.30679        6.70503
H          4.23227        4.11935        6.90870
C          0.12410        0.82062        7.12283
H          0.23733        0.76614        6.01868
H         -0.93967        1.02964        7.36244
H          0.41627       -0.15523        7.56322
H          0.55154        1.76727        9.78556
H          2.28717        3.79750        9.94035
C          1.10751        4.38913        3.95516
H          1.47328        4.43187        2.90862
H          1.38677        5.31968        4.48897
H          0.00284        4.28152        3.95066
H          3.78255        2.33869        4.52313
