! EnGrad PBEh-3c
%output 
xyzfile=True 
end 
%scf 
maxiter 250 
end
%output
Print[P_Hirshfeld] = 1
end
% maxcore
4000
*xyz 1 1
Sc   1.62595253  -1.19472746  -1.56853364 
C    0.42282706  -0.63113516   0.24722009 
N   -0.45331851  -1.37581176   0.94775479 
C   -0.80435504  -0.75723424   2.11137150 
C   -0.14291568   0.42385044   2.14118084 
N    0.58973943   0.48301364   0.99164136 
C    1.42338522   1.60998179   0.61365532 
H    1.50211456   2.29433205   1.45751692 
H    0.99550955   2.15046100  -0.22341217 
H    2.42417186   1.27408934   0.35146966 
C   -0.97715885  -2.66979086   0.55727160 
H   -0.58765602  -2.95383653  -0.41572610 
H   -2.06129148  -2.62775977   0.48931705 
H   -0.68930418  -3.42403432   1.28690778 
H   -1.47369681  -1.20219916   2.82837233 
H   -0.12587507   1.19833230   2.89330395 
C   -0.32543414   1.52889764  -2.92281122 
H   -1.07111327   1.69006985  -3.79661765 
H    0.55456090   2.16953623  -3.00565658 
H   -0.87264191   1.57237215  -1.94095044 
H    0.05658933   0.45605637  -3.04919222 
*
