! EnGrad PBEh-3c
%output 
xyzfile=True 
end 
%scf 
maxiter 250 
end
%output
Print[P_Hirshfeld] = 1
end
% maxcore
4000
*xyz 1 1
Sc   1.71243845  -1.37486561  -1.45620915 
C    0.42365232  -0.65029631   0.22057268 
N   -0.47972015  -1.37194282   0.92235485 
C   -0.83342905  -0.74502816   2.08495034 
C   -0.16646300   0.42651762   2.11040190 
N    0.58067609   0.48088241   0.95980233 
C    1.45421380   1.60623391   0.57793901 
H    1.62338981   2.23706536   1.44775707 
H    0.98303538   2.18356423  -0.19997231 
H    2.41936761   1.22720078   0.24925372 
C   -1.00160640  -2.68159712   0.56365998 
H   -0.56180991  -3.01716611  -0.37429847 
H   -2.07952548  -2.63721346   0.43960300 
H   -0.75581263  -3.40923239   1.33674476 
H   -1.49725265  -1.17351150   2.80899741 
H   -0.17199569   1.21737158   2.83271881 
C   -0.28821517   1.53579458  -2.90256490 
H   -1.03312805   1.54489105  -3.68044217 
H    0.10637343   2.63751155  -2.90142980 
H   -0.84199178   1.50442456  -1.91814682 
H    0.40935295   0.46158374  -3.12275458 
*
