! EnGrad PBEh-3c
%output 
xyzfile=True 
end 
%scf 
maxiter 250 
end
%output
Print[P_Hirshfeld] = 1
end
% maxcore
4000
*xyz 1 1
Sc   1.70307337  -1.35147946  -1.47222433 
C    0.42025721  -0.64056684   0.23882556 
N   -0.47502685  -1.37208846   0.92123951 
C   -0.82906610  -0.74783382   2.08540369 
C   -0.16034644   0.42647219   2.11028131 
N    0.58625947   0.48208778   0.95854559 
C    1.44669129   1.60136061   0.59097049 
H    1.60551556   2.24397682   1.45013493 
H    0.98245073   2.18661795  -0.21284980 
H    2.42104462   1.23133011   0.26216617 
C   -0.99712518  -2.68050243   0.56251953 
H   -0.56720832  -3.00914253  -0.37952844 
H   -2.07997432  -2.63795877   0.44574242 
H   -0.74672748  -3.40937833   1.32974361 
H   -1.49425660  -1.18172693   2.81554011 
H   -0.16466955   1.21581268   2.84520457 
C   -0.26311516   1.51878738  -2.89196148 
H   -1.03369690   1.55316337  -3.70255120 
H    0.16009282   2.57166466  -2.91223669 
H   -0.82125483   1.50229056  -1.94601487 
H    0.30921053   0.49999438  -3.10058083 
*
