! EnGrad PBEh-3c
%output 
xyzfile=True 
end 
%scf 
maxiter 250 
end
%output
Print[P_Hirshfeld] = 1
end
% maxcore
4000
*xyz 1 1
Sc   1.68527073  -1.31295226  -1.49736303 
C    0.42494349  -0.63461357   0.24753280 
N   -0.47178200  -1.37164416   0.92579568 
C   -0.82452552  -0.75030168   2.09083123 
C   -0.15448107   0.42649858   2.11750566 
N    0.58813329   0.48610400   0.96865921 
C    1.43843441   1.60446065   0.59424670 
H    1.57713537   2.25411669   1.45622162 
H    0.98600013   2.18490023  -0.22454470 
H    2.42146083   1.23818632   0.28375833 
C   -0.99326726  -2.67736109   0.55959897 
H   -0.57484980  -2.99738433  -0.38887816 
H   -2.07823354  -2.63910795   0.45547714 
H   -0.73206431  -3.41035026   1.31967409 
H   -1.48707109  -1.19235480   2.82263452 
H   -0.15295909   1.21051520   2.86095808 
C   -0.24996509   1.49108926  -2.91042899 
H   -1.01923029   1.56615271  -3.71940240 
H    0.24703316   2.48341396  -2.92657645 
H   -0.79894386   1.49985753  -1.97116157 
H    0.17195059   0.54480092  -3.06702807 
*
