! EnGrad PBEh-3c
%output 
xyzfile=True 
end 
%scf 
maxiter 250 
end
%output
Print[P_Hirshfeld] = 1
end
% maxcore
4000
*xyz 1 1
Sc   1.67006464  -1.27487814  -1.51994021 
C    0.42429456  -0.63240125   0.24885412 
N   -0.46370393  -1.37222540   0.93718876 
C   -0.81878467  -0.74845187   2.09952263 
C   -0.15109589   0.43207520   2.12477474 
N    0.59359390   0.48455935   0.98252889 
C    1.42923894   1.60685117   0.59818752 
H    1.54787904   2.26378278   1.45772882 
H    0.99341685   2.17758917  -0.22840341 
H    2.41682092   1.24889362   0.30662492 
C   -0.98994808  -2.67595425   0.55699062 
H   -0.58112889  -2.98481899  -0.40051321 
H   -2.07374211  -2.63797182   0.46621685 
H   -0.71691602  -3.41121115   1.30877037 
H   -1.47951878  -1.20036660   2.82443212 
H   -0.14157666   1.20307650   2.87433284 
C   -0.32214211   1.56544187  -2.91762037 
H   -1.00060296   1.57780500  -3.72442914 
H    0.36280018   2.33721360  -2.95345096 
H   -0.77882476   1.48587859  -2.00345372 
H    0.08457749   0.56138791  -3.04230556 
*
