! EnGrad PBEh-3c
%output 
xyzfile=True 
end 
%scf 
maxiter 250 
end
%output
Print[P_Hirshfeld] = 1
end
% maxcore
4000
*xyz 1 1
Sc   1.64994467  -1.22608632  -1.54684225 
C    0.42357684  -0.63217119   0.24890812 
N   -0.45507681  -1.37565274   0.94884278 
C   -0.81220499  -0.75406818   2.10979650 
C   -0.14622866   0.43291424   2.13556593 
N    0.59527632   0.48145853   0.99127383 
C    1.42327405   1.60867662   0.60742830 
H    1.51312561   2.28133306   1.45792710 
H    0.99808405   2.16187486  -0.22662729 
H    2.41561144   1.26581221   0.33639804 
C   -0.98058219  -2.67013001   0.55629750 
H   -0.58694280  -2.96538942  -0.41319424 
H   -2.06705422  -2.63228255   0.48160584 
H   -0.69752725  -3.41795146   1.29459939 
H   -1.47202197  -1.20352539   2.82475917 
H   -0.12879098   1.19898898   2.89019418 
C   -0.32791430   1.58019160  -2.92387838 
H   -1.06564430   1.64110115  -3.79963130 
H    0.53431892   2.20000008  -2.99648381 
H   -0.83620623   1.51174271  -1.94958497 
H    0.03106479   0.52434096  -3.03319905 
*
