! EnGrad PBEh-3c
%output 
xyzfile=True 
end 
%scf 
maxiter 250 
end
%output
Print[P_Hirshfeld] = 1
end
% maxcore
4000
*xyz 1 1
Sc   1.63983840  -1.21302167  -1.55555697 
C    0.42335983  -0.63239336   0.24759750 
N   -0.45461314  -1.37588525   0.94850000 
C   -0.80734287  -0.75485175   2.10945004 
C   -0.14505650   0.42702134   2.13761866 
N    0.59184082   0.48239082   0.99140964 
C    1.42353404   1.60902803   0.61017200 
H    1.50859141   2.28787198   1.45775037 
H    0.99653058   2.15593047  -0.22412665 
H    2.42016683   1.26991959   0.34312737 
C   -0.97888112  -2.66995553   0.55688955 
H   -0.58703143  -2.95981977  -0.41398163 
H   -2.06398206  -2.62973801   0.48528413 
H   -0.69388961  -3.42120341   1.29108986 
H   -1.47361562  -1.20257425   2.82670848 
H   -0.12766306   1.19946541   2.89154351 
C   -0.32384770   1.55684070  -2.92103355 
H   -1.07456701   1.66891252  -3.80219344 
H    0.54379347   2.18679157  -3.00192459 
H   -0.85881702   1.54426440  -1.94045785 
H    0.05077615   0.48387864  -3.04376761 
*
