! EnGrad PBEh-3c
%output 
xyzfile=True 
end 
%scf 
maxiter 250 
end
%output
Print[P_Hirshfeld] = 1
end
% maxcore
4000
*xyz 1 1
Sc   1.59259552  -1.15078063  -1.59970653 
C    0.42154724  -0.62811270   0.24631348 
N   -0.45020853  -1.37563520   0.94596464 
C   -0.79717761  -0.76295750   2.11598729 
C   -0.13777294   0.41623325   2.14973800 
N    0.58469143   0.48450978   0.99219801 
C    1.42302773   1.61227296   0.62202303 
H    1.48655572   2.30985058   1.45695613 
H    0.99305680   2.13732211  -0.22169584 
H    2.43379287   1.28410601   0.37150973 
C   -0.97302157  -2.66939527   0.55818938 
H   -0.58915645  -2.93946343  -0.41991673 
H   -2.05482810  -2.62300760   0.49900505 
H   -0.67828894  -3.43083483   1.27686149 
H   -1.47389185  -1.20129809   2.83236927 
H   -0.12157989   1.19561031   2.89753291 
C   -0.32924513   1.46177208  -2.92708159 
H   -1.06281659   1.74089453  -3.78322335 
H    0.58042671   2.12808500  -3.01462168 
H   -0.90585241   1.63989332  -1.94213375 
H    0.07055391   0.38922100  -3.06222336 
*
