! EnGrad PBEh-3c
%output 
xyzfile=True 
end 
%scf 
maxiter 250 
end
%output
Print[P_Hirshfeld] = 1
end
% maxcore
4000
*xyz -1 1
Pt  -1.30031833  -1.03179119   0.65683381 
Cl  -0.30950939  -0.91827662   2.74056762 
Cl  -2.79507509  -2.61979380   1.18373409 
Cl  -2.01531286  -0.82374376  -1.53245692 
C    1.27391713   1.08128584  -0.62146680 
H    1.43071896   2.15329643  -0.52337661 
H    1.25146067   0.63187885   0.43008215 
H    2.10607809   0.62793620  -1.15444965 
H    0.35804083   0.89919870  -1.17946640 
*
