! EnGrad PBEh-3c
%output 
xyzfile=True 
end 
%scf 
maxiter 250 
end
%output
Print[P_Hirshfeld] = 1
end
% maxcore
4000
*xyz -1 1
Pt  -1.30066149  -1.03483941   0.65443730 
Cl  -0.30944612  -0.91397633   2.73571619 
Cl  -2.78754630  -2.60853107   1.18558239 
Cl  -2.00853857  -0.83000262  -1.53139679 
C    1.27831326   1.05447908  -0.54988566 
H    1.43279242   2.15051017  -0.51622776 
H    1.24359938   0.65000739   0.35478590 
H    2.10102810   0.63014236  -1.16067652 
H    0.35030553   0.90033446  -1.16990021 
*
