! EnGrad PBEh-3c
%output 
xyzfile=True 
end 
%scf 
maxiter 250 
end
%output
Print[P_Hirshfeld] = 1
end
% maxcore
4000
*xyz -1 1
Pt  -1.29669054  -1.03299371   0.65264958 
Cl  -0.30884884  -0.91018570   2.73504209 
Cl  -2.78636574  -2.60431622   1.18627745 
Cl  -2.00408491  -0.83405290  -1.53374216 
C    1.27539868   1.07381800  -0.60074913 
H    1.43281038   2.14226638  -0.50714767 
H    1.24135660   0.62679487   0.38983508 
H    2.09251711   0.63165952  -1.15916052 
H    0.35378631   0.90478146  -1.16013383 
*
