! EnGrad PBEh-3c
%output 
xyzfile=True 
end 
%scf 
maxiter 250 
end
%output
Print[P_Hirshfeld] = 1
end
% maxcore
4000
*xyz -1 1
Pt  -1.29418850  -1.03228661   0.65093043 
Cl  -0.30849718  -0.90714963   2.73282045 
Cl  -2.78414698  -2.59967380   1.18800788 
Cl  -2.00009031  -0.83807994  -1.53470629 
C    1.27352466   1.07860049  -0.61442395 
H    1.43395428   2.13839974  -0.49980449 
H    1.23718923   0.61768902   0.39195360 
H    2.08795744   0.63258655  -1.16016083 
H    0.35418036   0.90671073  -1.15042342 
*
