! EnGrad PBEh-3c
%output 
xyzfile=True 
end 
%scf 
maxiter 250 
end
%output
Print[P_Hirshfeld] = 1
end
% maxcore
4000
*xyz -1 1
Pt  -1.28641497  -1.02843714   0.64725308 
Cl  -0.30730086  -0.90092415   2.72833084 
Cl  -2.78196434  -2.59271756   1.19355553 
Cl  -1.99234423  -0.84663393  -1.53823873 
C    1.27095493   1.07626021  -0.61099289 
H    1.43835462   2.14300608  -0.48495955 
H    1.22962678   0.60501320   0.38462362 
H    2.08856349   0.62998426  -1.17072407 
H    0.34054359   0.90887246  -1.14132738 
*
