! EnGrad PBEh-3c
%output 
xyzfile=True 
end 
%scf 
maxiter 250 
end
%output
Print[P_Hirshfeld] = 1
end
% maxcore
4000
*xyz -1 1
Pt  -1.28695305  -1.02877551   0.64734699 
Cl  -0.30706016  -0.90122388   2.72852048 
Cl  -2.78203033  -2.59309616   1.19391920 
Cl  -1.99287284  -0.84638072  -1.53843965 
C    1.27195713   1.07492708  -0.60685749 
H    1.43818540   2.14268118  -0.48591701 
H    1.23021359   0.60712452   0.38215369 
H    2.08840616   0.63037584  -1.17037216 
H    0.34022378   0.90865252  -1.14264512 
*
