! EnGrad PBEh-3c
%output 
xyzfile=True 
end 
%scf 
maxiter 250 
end
%output
Print[P_Hirshfeld] = 1
end
% maxcore
4000
*xyz -1 1
Pt  -1.28686438  -1.02874286   0.64711570 
Cl  -0.30665103  -0.90111434   2.72820909 
Cl  -2.78204055  -2.59315504   1.19508339 
Cl  -1.99294842  -0.84683880  -1.53897069 
C    1.27184201   1.07392419  -0.60450175 
H    1.43851816   2.14301699  -0.48564480 
H    1.23012053   0.60780107   0.38044437 
H    2.08866034   0.63048126  -1.17077586 
H    0.33952379   0.90845830  -1.14260831 
*
