! EnGrad PBEh-3c
%output 
xyzfile=True 
end 
%scf 
maxiter 250 
end
%output
Print[P_Hirshfeld] = 1
end
% maxcore
4000
*xyz 0 1
Lu   0.10585949  -0.22874384   0.19634884 
C    0.49279316   0.57704241   2.60659349 
C    1.60429071  -0.22597763   2.26866251 
C    2.34440866   0.45223737   1.27814149 
C    1.65617211   1.63741433   0.94744022 
C    0.53682298   1.72843522   1.80418182 
H    1.97834980   2.39045621   0.24131535 
H   -0.07159893   2.61266379   1.92568639 
H   -0.18441886   0.40765248   3.42981307 
H    1.85677247  -1.17571225   2.72141497 
H    3.26996722   0.11022807   0.83902046 
C    0.72451943  -0.11676291  -2.28121657 
C   -0.48130944  -0.84754477  -2.23238415 
C    1.14938177  -2.10767649  -1.25883184 
C    1.73737888  -0.90748578  -1.70469940 
H    0.86347207   0.83543821  -2.77260550 
C   -0.22078136  -2.06767724  -1.59621332 
H   -1.38674281  -0.59931053  -2.76290275 
H    2.78221005  -0.65179310  -1.61264390 
H    1.65786294  -2.92247632  -0.76134345 
H   -0.91971550  -2.88411732  -1.49936791 
C   -2.01907397  -1.44867492   1.16536909 
H   -2.34341013  -1.12035388   2.15441052 
H   -1.96721434  -2.54920051   1.22398315 
H   -2.84388142  -1.31321742   0.45966543 
C   -1.92892058   2.16900886  -1.02285718 
H   -2.50822387   0.86005061   0.15754197 
H   -0.97387515   2.62517357  -1.28540888 
H   -2.55515202   2.99724775  -0.68870040 
H   -2.35595338   1.76369099  -1.94042222 
*
