! EnGrad PBEh-3c
%output 
xyzfile=True 
end 
%scf 
maxiter 250 
end
%output
Print[P_Hirshfeld] = 1
end
% maxcore
4000
*xyz 0 1
Lu  -0.05394761  -0.20932489   0.17736599 
C    0.44472518   0.78764953   2.52579365 
C    1.44688056  -0.16470358   2.22665688 
C    2.29966955   0.39438816   1.25134940 
C    1.80490730   1.66697252   0.91119060 
C    0.66211223   1.91273438   1.70692716 
H    2.29367136   2.37573809   0.25273832 
H    0.08445738   2.83043962   1.71484719 
H   -0.32547086   0.68218975   3.27498501 
H    1.56846217  -1.13033752   2.69947142 
H    3.20777421  -0.05586095   0.87435547 
C    0.88610617  -0.07495155  -2.38203113 
C   -0.37194978  -0.72129962  -2.42229230 
C    1.05748347  -2.02325677  -1.21222121 
C    1.76889274  -0.88872595  -1.65534237 
H    1.15920835   0.83185308  -2.90980808 
C   -0.26340044  -1.92742981  -1.70926196 
H   -1.24732339  -0.36789249  -2.95135127 
H    2.82852131  -0.71712610  -1.52813725 
H    1.47205761  -2.85349767  -0.65636498 
H   -1.05686007  -2.63794915  -1.53717946 
C   -2.09862520  -1.48015904   1.16907929 
H   -2.19583116  -1.32508248   2.25588896 
H   -1.82230650  -2.54922079   1.08957062 
H   -3.15029540  -1.45144848   0.81039527 
C   -2.06615344   1.83607411  -0.79771988 
H   -2.01614544   0.91963769  -0.11526083 
H   -1.07373798   2.20402125  -1.01929647 
H   -2.63344267   2.59033983  -0.25054710 
H   -2.59715278   1.52508777  -1.69689747 
*
