! EnGrad PBEh-3c
%output 
xyzfile=True 
end 
%scf 
maxiter 250 
end
%output
Print[P_Hirshfeld] = 1
end
% maxcore
4000
*xyz 0 1
Lu   0.03361709  -0.24133503   0.20845779 
C    0.49600952   0.61021444   2.60805694 
C    1.58738951  -0.21481339   2.26235643 
C    2.33931792   0.43670546   1.27053612 
C    1.69084179   1.64746946   0.95904927 
C    0.55639377   1.76383779   1.79463656 
H    2.01586091   2.38793205   0.23972853 
H   -0.05919656   2.63457469   1.89532291 
H   -0.20051747   0.43918840   3.40914822 
H    1.82122070  -1.16939048   2.71716513 
H    3.26560814   0.09033818   0.84585033 
C    0.75478874  -0.10897046  -2.30850617 
C   -0.46228455  -0.83460298  -2.26807534 
C    1.13371905  -2.09307966  -1.24905832 
C    1.74438513  -0.90612611  -1.69571257 
H    0.89847506   0.83944529  -2.78631222 
C   -0.22622890  -2.06411696  -1.61244127 
H   -1.37341141  -0.56831105  -2.78045722 
H    2.79023583  -0.66029397  -1.60600264 
H    1.63538707  -2.91497948  -0.75251458 
H   -0.93845999  -2.85071138  -1.49854557 
C   -1.98976236  -1.45818336   1.14843091 
H   -2.33465632  -1.14711713   2.16997158 
H   -1.94546345  -2.56071685   1.21971672 
H   -2.89113794  -1.33590761   0.50038292 
C   -2.02955621   2.08963100  -0.96600083 
H   -2.42317793   0.91614657   0.08687744 
H   -0.95928112   2.58062302  -1.25332759 
H   -2.55772678   2.95218633  -0.64035299 
H   -2.37271080   1.73994433  -1.90285632 
*
