! EnGrad PBEh-3c
%output 
xyzfile=True 
end 
%scf 
maxiter 250 
end
%output
Print[P_Hirshfeld] = 1
end
% maxcore
4000
*xyz 0 1
Lu  -0.02523046  -0.24673462   0.21439879 
C    0.49804369   0.64915604   2.59982434 
C    1.56643115  -0.20766836   2.26069375 
C    2.33237457   0.42673397   1.26211020 
C    1.72164577   1.65758437   0.96484641 
C    0.58317710   1.78899810   1.78650393 
H    2.05896779   2.38488839   0.23910741 
H   -0.04626488   2.66632789   1.86294277 
H   -0.21956711   0.47508430   3.38935066 
H    1.78092199  -1.16177153   2.71219719 
H    3.26216955   0.06673821   0.85235224 
C    0.78116120  -0.11332161  -2.32838981 
C   -0.44011196  -0.82257621  -2.30154639 
C    1.12124410  -2.08356600  -1.23681802 
C    1.74785198  -0.90059998  -1.68882346 
H    0.93934773   0.84850978  -2.80559822 
C   -0.22821764  -2.03893998  -1.63610720 
H   -1.35715249  -0.53449555  -2.80265333 
H    2.80014927  -0.67069486  -1.59727054 
H    1.60957871  -2.90512657  -0.74195495 
H   -0.96382986  -2.82079017  -1.49833807 
C   -1.98851063  -1.46504342   1.14490216 
H   -2.31635901  -1.18157093   2.17395807 
H   -1.92207954  -2.57289157   1.21221717 
H   -2.93075496  -1.36199049   0.55137355 
C   -2.05185961   2.01020652  -0.89464260 
H   -2.33702624   0.97892729   0.00644874 
H   -0.99352610   2.51190659  -1.20779300 
H   -2.57616713   2.91581746  -0.58146871 
H   -2.40656181   1.70533102  -1.88116379 
*
