! EnGrad PBEh-3c
%output 
xyzfile=True 
end 
%scf 
maxiter 250 
end
%output
Print[P_Hirshfeld] = 1
end
% maxcore
4000
*xyz 0 1
Lu  -0.02630747  -0.24233297   0.21074255 
C    0.49540286   0.65714749   2.59517549 
C    1.55981972  -0.20608761   2.26067619 
C    2.33015332   0.42684897   1.26107300 
C    1.72590644   1.65885221   0.96057770 
C    0.59029173   1.79417131   1.78461009 
H    2.07236012   2.38419422   0.23991070 
H   -0.04061332   2.67718065   1.85440322 
H   -0.22465600   0.48674515   3.38391749 
H    1.76899648  -1.16059911   2.71147060 
H    3.26124956   0.05930336   0.85356751 
C    0.78532300  -0.11447445  -2.33070329 
C   -0.43684092  -0.81802273  -2.30900708 
C    1.11983085  -2.08093709  -1.23453963 
C    1.74899688  -0.89951074  -1.68682601 
H    0.95182105   0.84963965  -2.81198154 
C   -0.22975706  -2.02799306  -1.64315660 
H   -1.35028460  -0.52555427  -2.81036263 
H    2.80246487  -0.67408369  -1.59401284 
H    1.60236323  -2.90297358  -0.73722525 
H   -0.97045185  -2.81256519  -1.49974139 
C   -2.00716913  -1.46745990   1.15225683 
H   -2.30676540  -1.19305328   2.17032104 
H   -1.91588326  -2.57408013   1.20747859 
H   -2.93574056  -1.36917346   0.56873683 
C   -2.01779975   1.99626040  -0.87850507 
H   -2.31677140   0.99562939  -0.01643233 
H   -1.02831941   2.48185537  -1.18889393 
H   -2.58563900   2.90530149  -0.56305010 
H   -2.42163045   1.69333326  -1.87684612 
*
