! EnGrad PBEh-3c
%output 
xyzfile=True 
end 
%scf 
maxiter 250 
end
%output
Print[P_Hirshfeld] = 1
end
% maxcore
4000
*xyz 0 1
Lu  -0.03742998  -0.24009453   0.20929917 
C    0.49242348   0.66614229   2.59410057 
C    1.55236915  -0.20101299   2.25732240 
C    2.32855789   0.42263003   1.26000716 
C    1.73493707   1.66068798   0.95863646 
C    0.59620484   1.80915260   1.78020947 
H    2.08939774   2.38377421   0.24021851 
H   -0.03193304   2.68725341   1.84271849 
H   -0.23076733   0.50184211   3.37521761 
H    1.75366146  -1.15948769   2.71068122 
H    3.25880593   0.05054442   0.85590443 
C    0.79492014  -0.10794111  -2.33926518 
C   -0.43284421  -0.81024020  -2.32176034 
C    1.11466119  -2.07382219  -1.23283608 
C    1.75285000  -0.90031905  -1.68281585 
H    0.96712239   0.84792879  -2.81816347 
C   -0.23410609  -2.02625997  -1.64822491 
H   -1.34224049  -0.51345334  -2.81972103 
H    2.80501747  -0.67800138  -1.59039459 
H    1.59329122  -2.90099864  -0.73115994 
H   -0.97608487  -2.79733077  -1.50175545 
C   -2.01173105  -1.47362066   1.15247065 
H   -2.29984280  -1.20495123   2.17611737 
H   -1.90815633  -2.57565836   1.20237475 
H   -2.95230679  -1.37780931   0.58729673 
C   -2.02913224   1.97450411  -0.86435421 
H   -2.28584307   1.01354040  -0.04239019 
H   -1.04212180   2.45540375  -1.17126156 
H   -2.58733613   2.88154829  -0.54238435 
H   -2.43156107   1.68281621  -1.85775174 
*
