! EnGrad PBEh-3c
%output 
xyzfile=True 
end 
%scf 
maxiter 250 
end
%output
Print[P_Hirshfeld] = 1
end
% maxcore
4000
*xyz 0 1
Lu  -0.07177818  -0.22600659   0.19529880 
C    0.47005566   0.73638910   2.56273689 
C    1.49644754  -0.17900641   2.24062017 
C    2.31488290   0.40488218   1.25396698 
C    1.77932166   1.66744424   0.93580552 
C    0.63943405   1.87798780   1.74763353 
H    2.20730467   2.38106341   0.24469538 
H    0.02848765   2.76710842   1.76679514 
H   -0.28062478   0.60390582   3.32127820 
H    1.64857060  -1.14619576   2.70444350 
H    3.23589368  -0.01051953   0.86840738 
C    0.84949768  -0.08775179  -2.37126472 
C   -0.39733867  -0.76301581  -2.38872060 
C    1.08111826  -2.04309997  -1.21910988 
C    1.76454908  -0.89357095  -1.66567928 
H    1.07544758   0.84188464  -2.86829115 
C   -0.25044326  -1.97764481  -1.68738240 
H   -1.29076215  -0.42978007  -2.89138125 
H    2.82188370  -0.70277534  -1.55920473 
H    1.52677062  -2.87839175  -0.68969524 
H   -1.02174888  -2.70522415  -1.51794690 
C   -2.05588577  -1.49606861   1.15901702 
H   -2.24505447  -1.28020363   2.22178598 
H   -1.85522645  -2.58003365   1.15424888 
H   -3.06302586  -1.42737418   0.71138427 
C   -2.07108290   1.91245164  -0.83717482 
H   -2.09914721   1.03542844  -0.13647719 
H   -1.10681232   2.27733942  -1.05410962 
H   -2.60827432   2.70908464  -0.38867954 
H   -2.51656236   1.59944773  -1.74107693 
*
