! EnGrad PBEh-3c
%output 
xyzfile=True 
end 
%scf 
maxiter 250 
end
%output
Print[P_Hirshfeld] = 1
end
% maxcore
4000
*xyz 0 1
Lu  -0.06013753  -0.21471490   0.18189911 
C    0.44944311   0.77989586   2.53276568 
C    1.45574443  -0.16801660   2.22923712 
C    2.30260684   0.39663546   1.25210646 
C    1.80096130   1.66729808   0.91436237 
C    0.65926717   1.90818228   1.71563800 
H    2.28084952   2.37733993   0.25124601 
H    0.07446207   2.82046479   1.72253869 
H   -0.31750570   0.66970756   3.28380543 
H    1.58129258  -1.13335355   2.70030579 
H    3.21337312  -0.04891736   0.87356898 
C    0.88014546  -0.07640633  -2.38061403 
C   -0.37690684  -0.72942289  -2.41834418 
C    1.06188766  -2.02768632  -1.21253399 
C    1.76898353  -0.88921187  -1.65681037 
H    1.14599162   0.83384484  -2.90314929 
C   -0.26040500  -1.93526957  -1.70731029 
H   -1.25480446  -0.37750586  -2.94156401 
H    2.82766715  -0.71546749  -1.53378794 
H    1.48091887  -2.85763917  -0.66204273 
H   -1.05155651  -2.64900505  -1.53328930 
C   -2.09070240  -1.48666158   1.16795297 
H   -2.20395215  -1.32012015   2.25217291 
H   -1.82598047  -2.56169340   1.10409080 
H   -3.13676494  -1.44912425   0.79264726 
C   -2.07249573   1.84788693  -0.80334660 
H   -2.02016681   0.95260662  -0.12659043 
H   -1.07321311   2.21273721  -1.02039735 
H   -2.63728758   2.61806094  -0.27004951 
H   -2.59084127   1.53542917  -1.71087261 
*
