! EnGrad PBEh-3c
%output 
xyzfile=True 
end 
%scf 
maxiter 250 
end
%output
Print[P_Hirshfeld] = 1
end
% maxcore
4000
*xyz -1 1
C   -2.09244284  -0.01675202   0.62360907 
C   -1.77938343   1.02232041   1.49969857 
C   -3.44209276  -0.25135208   0.36400114 
C   -4.44228840   0.64964314   0.69863894 
C   -4.11561488   1.74385420   1.47397761 
C   -2.78614307   1.96349909   1.77201235 
H   -2.51862800  -2.08091766  -2.13263509 
H   -3.80957077  -1.25190058   0.17547381 
H   -2.57590337   2.89845137   2.28667246 
H   -5.48080833   0.44533496   0.46463888 
H   -4.89223662   2.42970431   1.78985292 
C   -0.42657014   1.35026773   2.07834779 
C    0.76620868   0.41073465   2.05831335 
H   -0.59636091   1.58545682   3.13912036 
H   -0.13706731   2.30031222   1.61963516 
C    1.71698256   0.65840765   0.91950778 
H    0.41783595  -0.62447853   2.05767964 
H    1.34350623   0.48432524   2.99116407 
C    1.46522928   0.12297578  -0.35045557 
C    2.44908333   0.34898139  -1.31644308 
C    3.50201096   1.24145022  -1.13365274 
C    2.88695619   1.38826607   1.15745022 
C    3.65229287   1.85843192   0.09730842 
H    2.49306338  -0.24777306  -2.21979627 
H    4.21361256   1.43843307  -1.92761325 
H    3.09787653   1.76461437   2.15457734 
H    4.36837239   2.66059344   0.22838135 
Pd   0.10032870  -1.29168789  -0.58912272 
Br  -1.53504368  -3.74563949  -0.35737292 
P    1.45965685  -2.99426029  -0.08889518 
H    1.32280675  -3.64349442   1.15482940 
C    0.23619683  -1.49754684  -3.80919885 
O    1.35305898  -1.77482501  -4.17729758 
O   -0.54751221  -2.37246293  -3.27282004 
O   -0.37982729  -0.34347865  -4.12174230 
H    2.84814416  -2.77635359   0.04576779 
H    1.58443634  -4.12972885  -0.90974888 
H    0.27981979   0.27659267  -4.44385071 
*
