! EnGrad PBEh-3c
%output 
xyzfile=True 
end 
%scf 
maxiter 250 
end
%output
Print[P_Hirshfeld] = 1
end
% maxcore
4000
*xyz -1 1
C   -2.03522506  -0.07222261   0.63248075 
C   -1.79124121   1.05499178   1.43253582 
C   -3.45801487  -0.29462216   0.42978926 
C   -4.46616062   0.59845290   0.78476310 
C   -4.12629826   1.76645851   1.46107486 
C   -2.81898381   1.95094104   1.82735250 
H   -2.37392127  -2.07933300  -2.06729845 
H   -3.80111915  -1.28511071   0.13772533 
H   -2.55670206   2.89637134   2.29292903 
H   -5.50370488   0.41102132   0.52351016 
H   -4.89607023   2.43262788   1.82066782 
C   -0.42671508   1.39645608   2.05092683 
C    0.76715155   0.38889389   2.04459162 
H   -0.58861056   1.65626249   3.08918046 
H   -0.13003584   2.29979662   1.54137696 
C    1.72988371   0.62513709   0.92520919 
H    0.39984521  -0.62928323   2.03580301 
H    1.31485065   0.51215501   2.97829194 
C    1.53137123   0.06701033  -0.34339771 
C    2.48386102   0.31123842  -1.33673419 
C    3.50266824   1.24100051  -1.13631415 
C    2.83014696   1.45900086   1.13773173 
C    3.68220228   1.82691655   0.10522017 
H    2.48927116  -0.26132912  -2.24861640 
H    4.22217269   1.42740950  -1.92671216 
H    3.07467381   1.77065112   2.14895153 
H    4.39999158   2.62886071   0.24189546 
Pd  -0.04461475  -1.26437709  -0.53567678 
Br  -1.58171900  -3.65889616  -0.47012245 
P    1.51275624  -2.99885550  -0.09061934 
H    1.27190971  -3.62876559   1.15557219 
C    0.20948126  -1.55961597  -3.87221055 
O    1.38772832  -1.73446109  -4.16031560 
O   -0.61153785  -2.31188512  -3.20688848 
O   -0.36301822  -0.30710775  -4.11802895 
H    2.86088003  -2.77277340   0.08759262 
H    1.58082678  -4.13618172  -0.89085846 
H    0.32322726   0.27340368  -4.48087636 
*
