! EnGrad PBEh-3c
%output 
xyzfile=True 
end 
%scf 
maxiter 250 
end
%output
Print[P_Hirshfeld] = 1
end
% maxcore
4000
*xyz -1 1
Pd  -2.27118587  -1.72586630   0.79037657 
Cl  -3.72829087  -3.18511372  -0.05167347 
Cl  -1.00827769  -4.20300067   1.62357063 
Cl  -3.77684395  -0.00328248   0.34532205 
N   -0.93271902  -0.19205808   1.44524977 
C   -1.22284403   0.35727551   2.60886392 
C   -0.73282362   1.57721773   3.03012876 
C    0.07760360   2.27359640   2.18920778 
C   -0.06265645   0.43587382   0.62059004 
C    0.43871482   1.73105108   0.94392833 
H    0.46414312   3.25595097   2.46967091 
H   -1.91477771  -0.20542358   3.22555609 
H   -1.02262272   1.97016008   4.00388436 
C    0.35378401  -0.21347964  -0.59517890 
C    1.27475525   2.41570619   0.02909588 
C    1.60557812   1.85976584  -1.14244602 
C    1.18937753   0.53748829  -1.50472472 
H    1.63319522   3.40860677   0.29329800 
H    2.23443965   2.40280110  -1.84650330 
C    0.04776479  -1.70720167  -0.88308914 
C    1.63734390  -0.04991556  -2.69036310 
C    0.49379997  -2.07019452  -2.13175260 
C    1.28467822  -1.33734733  -3.00031108 
H    2.25086068   0.51435245  -3.36502220 
H    1.65244516  -1.78959156  -3.91239031 
H   -0.22071614  -2.96146962  -0.10263176 
H    0.25560455  -3.09577877  -2.39277759 
*
