! EnGrad PBEh-3c
%output 
xyzfile=True 
end 
%scf 
maxiter 250 
end
%output
Print[P_Hirshfeld] = 1
end
% maxcore
4000
*xyz -1 1
Pd  -2.25973349  -1.76169629   0.77524693 
Cl  -3.70253228  -3.18818419  -0.06145134 
Cl  -0.97319773  -4.18908879   1.57147510 
Cl  -3.78855093  -0.03180601   0.39660711 
N   -0.94499672  -0.18796058   1.44986697 
C   -1.23749696   0.35898540   2.60566500 
C   -0.73712888   1.59213874   3.03649206 
C    0.08529225   2.28840835   2.18088206 
C   -0.05982334   0.43625198   0.62592138 
C    0.43560638   1.73159618   0.94924154 
H    0.46553211   3.25933660   2.46472160 
H   -1.91864425  -0.19033530   3.22238870 
H   -1.02820589   1.98241768   3.99417227 
C    0.34700134  -0.25695109  -0.59085080 
C    1.28145064   2.42532313   0.03849632 
C    1.61676618   1.85338648  -1.15005218 
C    1.17758998   0.53086434  -1.48890648 
H    1.64368189   3.40602812   0.29569151 
H    2.24588640   2.39443273  -1.83985640 
C    0.05968161  -1.76345924  -0.84218151 
C    1.64149433  -0.05710610  -2.69392682 
C    0.47155202  -2.09145627  -2.13053773 
C    1.27595097  -1.31503224  -3.00899453 
H    2.26438489   0.51590577  -3.35959771 
H    1.64462560  -1.78981383  -3.90902662 
H   -0.23781267  -2.86766353  -0.13160051 
H    0.23211625  -3.08426607  -2.39902134 
*
