! EnGrad PBEh-3c
%output 
xyzfile=True 
end 
%scf 
maxiter 250 
end
%output
Print[P_Hirshfeld] = 1
end
% maxcore
4000
*xyz -1 1
Pd  -2.25296242  -1.75155505   0.77993798 
Cl  -3.70385522  -3.19776123  -0.06850020 
Cl  -0.96714887  -4.18947317   1.56242422 
Cl  -3.79096341  -0.04070623   0.40852796 
N   -0.93872693  -0.18635708   1.44758981 
C   -1.24130308   0.35870886   2.60472737 
C   -0.73668550   1.59631058   3.03469527 
C    0.08495404   2.29215799   2.18253529 
C   -0.06188176   0.43265560   0.61709252 
C    0.43366166   1.72581759   0.95005165 
H    0.46586201   3.26092190   2.46422490 
H   -1.92265461  -0.18812355   3.22421670 
H   -1.02950490   1.98570997   3.99360941 
C    0.35081566  -0.27730617  -0.58871841 
C    1.28329460   2.42365569   0.03670818 
C    1.61504171   1.85006826  -1.14760333 
C    1.16899227   0.51810957  -1.47801503 
H    1.64668217   3.40728566   0.29671309 
H    2.24937400   2.39331954  -1.83955046 
C    0.06779017  -1.72205155  -0.84769560 
C    1.63850180  -0.05374087  -2.68813380 
C    0.46702670  -2.09612842  -2.11865785 
C    1.27019788  -1.32100709  -3.00642098 
H    2.26928347   0.51669013  -3.36074705 
H    1.64184185  -1.78943377  -3.90973036 
H   -0.23508191  -2.85672862  -0.13922722 
H    0.22781585  -3.09077617  -2.40811417 
*
