! EnGrad PBEh-3c
%output 
xyzfile=True 
end 
%scf 
maxiter 250 
end
%output
Print[P_Hirshfeld] = 1
end
% maxcore
4000
*xyz -1 1
Pd  -2.19545431  -1.78160813   0.76008895 
Cl  -3.63647610  -3.25301463  -0.13442030 
Cl  -0.82787111  -4.14988284   1.35865738 
Cl  -3.83846852  -0.16122209   0.61822699 
N   -0.94812693  -0.17731593   1.45048144 
C   -1.26993889   0.40393029   2.59649572 
C   -0.75491950   1.62830292   3.01139920 
C    0.07767365   2.30200526   2.16945633 
C   -0.06445907   0.40610892   0.62471801 
C    0.43828627   1.71607421   0.94001697 
H    0.47736724   3.28781589   2.44540980 
H   -1.96360242  -0.14097905   3.22427155 
H   -1.05353633   2.03893868   3.97499720 
C    0.37666783  -0.32683307  -0.54007225 
C    1.30218673   2.40444940   0.03820358 
C    1.61633251   1.80966140  -1.11809344 
C    1.16607106   0.46809480  -1.44868722 
H    1.68699411   3.40043120   0.30763725 
H    2.28258730   2.34265012  -1.81648794 
C    0.09202888  -1.72237580  -0.83058858 
C    1.62254756  -0.06256625  -2.66016766 
C    0.43897196  -2.10266558  -2.11049430 
C    1.21021193  -1.33742114  -2.98909631 
H    2.29848570   0.50285545  -3.31732907 
H    1.59324296  -1.78468079  -3.89865833 
H   -0.26333754  -2.61651211  -0.18870790 
H    0.13702504  -3.09402247  -2.45306186 
*
