! EnGrad PBEh-3c
%output 
xyzfile=True 
end 
%scf 
maxiter 250 
end
%output
Print[P_Hirshfeld] = 1
end
% maxcore
4000
*xyz -1 1
Pd  -2.16932618  -1.80700138   0.74620750 
Cl  -3.58260177  -3.28744135  -0.18869394 
Cl  -0.70062984  -4.06443836   1.15964338 
Cl  -3.87043834  -0.25103478   0.79173674 
N   -0.95592420  -0.18054187   1.46162036 
C   -1.29823374   0.41796903   2.59295029 
C   -0.77435492   1.65395474   2.99841773 
C    0.07391255   2.30829863   2.15551301 
C   -0.05113289   0.39771706   0.65001761 
C    0.43989487   1.70653581   0.94773521 
H    0.47798008   3.28563029   2.41788134 
H   -1.99930361  -0.10042503   3.21583788 
H   -1.06982842   2.07223815   3.95187842 
C    0.40870862  -0.31649837  -0.52665034 
C    1.31259988   2.38404104   0.04566677 
C    1.63208208   1.78090531  -1.10472315 
C    1.18989877   0.45650378  -1.42568074 
H    1.70428376   3.36918086   0.30932580 
H    2.29154272   2.28510767  -1.79683152 
C    0.10088580  -1.67491368  -0.84892918 
C    1.60905532  -0.09230070  -2.64349828 
C    0.41482477  -2.12159081  -2.11642646 
C    1.19239084  -1.34277582  -2.98490846 
H    2.29533015   0.47652227  -3.26603320 
H    1.54246785  -1.78491174  -3.89954462 
H   -0.28890276  -2.48702506  -0.15039784 
H    0.07661771  -3.08460695  -2.46346618 
*
