! EnGrad PBEh-3c
%output 
xyzfile=True 
end 
%scf 
maxiter 250 
end
%output
Print[P_Hirshfeld] = 1
end
% maxcore
4000
*xyz -1 1
C   -2.55996966  -0.26009223   0.84051912 
C   -1.98882615   0.90907740   1.36809832 
C   -3.87331836  -0.56391350   1.20174284 
C   -4.72798213   0.45206433   1.60972564 
C   -4.16241633   1.60141475   2.13458692 
C   -2.78115387   1.72086041   2.17638943 
H   -2.52789564  -1.28257564  -0.84442398 
H   -4.31250856  -1.52502920   0.96574442 
H   -2.36866013   2.60275098   2.65435919 
H   -5.79268516   0.27188624   1.69147469 
H   -4.79647838   2.33405637   2.61768657 
C   -0.63427950   1.41263153   0.96627994 
C    0.50444227   0.55524835   1.50792964 
H   -0.45137941   2.45312200   1.26698286 
H   -0.64966212   1.52261232  -0.12143621 
C    1.73030013   0.62831130   0.63652917 
H    0.20479420  -0.49003979   1.61901110 
H    0.74514846   0.87506531   2.52859533 
C    1.82912530  -0.11587874  -0.54913930 
C    2.94320853   0.07579835  -1.36259494 
C    3.89646527   1.04458116  -1.06744951 
C    2.82356275   1.39334317   1.04127035 
C    3.81809469   1.73604093   0.13320716 
H    3.06876306  -0.50863354  -2.26514671 
H    4.69430818   1.25710441  -1.76987572 
H    2.78880894   1.87915988   2.01149213 
H    4.49421140   2.55743940   0.33917602 
Pd   0.47664154  -1.45269493  -1.02332724 
Br  -1.27987572  -3.74533880  -1.35409712 
P    1.27894610  -2.98397701   0.28654641 
H    0.48558004  -3.41961635   1.35669344 
C    0.61186074  -1.04910214  -3.94151618 
O    1.62688273  -1.67408547  -4.16774292 
O   -0.35308879  -1.38953069  -3.18943690 
O    0.18227241  -0.02554844  -4.71993260 
H    2.46439412  -2.72936522   1.00302471 
H    1.69047398  -4.21519196  -0.24794938 
H    0.90189735   0.14804815  -5.33297707 
*
