! EnGrad PBEh-3c
%output 
xyzfile=True 
end 
%scf 
maxiter 250 
end
%output
Print[P_Hirshfeld] = 1
end
% maxcore
4000
*xyz -1 1
C   -2.57363800  -0.28591016   0.73343540 
C   -1.97650589   0.89520099   1.34262262 
C   -3.88560141  -0.54851107   1.10190853 
C   -4.70956078   0.42537981   1.62095805 
C   -4.17706476   1.59350920   2.13606943 
C   -2.82112279   1.75562057   2.13597382 
H   -2.48604300  -1.19236238  -0.75453962 
H   -4.27356364  -1.52695701   0.92419010 
H   -2.38974751   2.62076227   2.63054297 
H   -5.78496080   0.27288864   1.61294189 
H   -4.81679994   2.34087632   2.56740445 
C   -0.61415170   1.42657907   1.01505274 
C    0.54938656   0.53245682   1.53930969 
H   -0.45063605   2.43770296   1.38395620 
H   -0.60894076   1.54778911  -0.06516780 
C    1.76098342   0.59539672   0.68129241 
H    0.20126462  -0.49121981   1.63499656 
H    0.77729223   0.85850531   2.55586861 
C    1.82388517  -0.10406651  -0.53831315 
C    2.92519467   0.08362707  -1.36839044 
C    3.87634839   1.06110841  -1.06809688 
C    2.80142744   1.44188117   1.02491916 
C    3.82795080   1.72734619   0.13311911 
H    3.03662392  -0.50133225  -2.27060265 
H    4.66921665   1.26655527  -1.78192689 
H    2.81641303   1.86882551   2.02262777 
H    4.50608722   2.54675627   0.34335724 
Pd   0.37651009  -1.50835845  -1.10259325 
Br  -1.29095292  -3.71845071  -1.26870024 
P    1.30453751  -2.98850383   0.29631265 
H    0.53038897  -3.44025865   1.35402830 
C    0.50053864  -1.15978159  -3.97597220 
O    1.66655331  -1.63710897  -4.17444779 
O   -0.33527334  -1.42581036  -3.08550549 
O    0.18200002  -0.00568835  -4.69850105 
H    2.50016956  -2.73447724   0.96381256 
H    1.67959019  -4.20526268  -0.29720959 
H    0.88144325   0.17932242  -5.30149157 
*
