! EnGrad PBEh-3c
%output 
xyzfile=True 
end 
%scf 
maxiter 250 
end
%output
Print[P_Hirshfeld] = 1
end
% maxcore
4000
*xyz -1 1
C   -2.56164848  -0.26980795   0.60904116 
C   -2.00128072   0.89275497   1.30946066 
C   -3.87526395  -0.53421730   0.99203587 
C   -4.70908705   0.40511637   1.60491040 
C   -4.20301328   1.57893503   2.10952456 
C   -2.81818045   1.75519770   2.06504287 
H   -2.42882249  -1.06238913  -0.62568349 
H   -4.23774139  -1.53918121   0.84545612 
H   -2.42199207   2.64484299   2.58617480 
H   -5.77161122   0.26685473   1.51013290 
H   -4.85411127   2.35178098   2.49985640 
C   -0.57655825   1.41888633   1.09398543 
C    0.57537929   0.51486559   1.59013072 
H   -0.44874217   2.41823401   1.55528350 
H   -0.54207902   1.59987877   0.01886140 
C    1.78386527   0.56733025   0.70328165 
H    0.20150746  -0.50355999   1.66232218 
H    0.82926637   0.82924478   2.60351325 
C    1.78801332  -0.11818519  -0.53959628 
C    2.89163802   0.10247455  -1.36904585 
C    3.85319662   1.06762775  -1.08270441 
C    2.80078984   1.47249580   1.02531329 
C    3.82587403   1.73813709   0.13506375 
H    2.98711692  -0.48536983  -2.27957221 
H    4.63277448   1.28062246  -1.79850437 
H    2.85182716   1.86235278   2.03695987 
H    4.52367682   2.53361304   0.34575441 
Pd   0.31962494  -1.57401503  -1.10874616 
Br  -1.31530167  -3.69170813  -1.15284586 
P    1.31805643  -2.97609617   0.26697573 
H    0.59544580  -3.47429982   1.35875577 
C    0.51348629  -1.20206951  -3.99188010 
O    1.61757196  -1.60926558  -4.18575790 
O   -0.34677960  -1.49381220  -3.04747555 
O    0.11649695  -0.04268831  -4.63242758 
H    2.55811329  -2.73939027   0.90457344 
H    1.66632594  -4.19004956  -0.36513614 
H    0.85999979   0.21138692  -5.24698733 
*
