! EnGrad PBEh-3c
%output 
xyzfile=True 
end 
%scf 
maxiter 250 
end
%output
Print[P_Hirshfeld] = 1
end
% maxcore
4000
*xyz -1 1
C   -2.54930435  -0.24231532   0.50571668 
C   -2.01172627   0.90039736   1.26947745 
C   -3.85833332  -0.52502293   0.90247373 
C   -4.70854553   0.38904072   1.56734273 
C   -4.22247666   1.56760446   2.06874988 
C   -2.81871207   1.75205004   2.00513097 
H   -2.36883053  -0.93604986  -0.50051365 
H   -4.20775124  -1.54658010   0.75576618 
H   -2.45273986   2.66037971   2.53212179 
H   -5.76268270   0.25539297   1.41500088 
H   -4.88855987   2.35778473   2.43245389 
C   -0.54738240   1.41297810   1.17392225 
C    0.59274310   0.49711829   1.64081772 
H   -0.44872519   2.38969843   1.72342844 
H   -0.46887706   1.65942253   0.10900567 
C    1.79111075   0.55123518   0.71190760 
H    0.20523432  -0.51992385   1.69254011 
H    0.88329825   0.79646041   2.65394951 
C    1.75198826  -0.13680123  -0.53850891 
C    2.85181705   0.11819681  -1.37162639 
C    3.82812356   1.07282294  -1.09321844 
C    2.80743343   1.47795351   1.03205764 
C    3.81683591   1.75301903   0.12995232 
H    2.93639667  -0.46524559  -2.28791586 
H    4.59745156   1.29380007  -1.81640773 
H    2.88279549   1.86030806   2.04938334 
H    4.54216292   2.52265389   0.34632787 
Pd   0.29499439  -1.62551864  -1.07744482 
Br  -1.34433024  -3.67032085  -1.04171133 
P    1.33048855  -2.96623725   0.23541393 
H    0.66395110  -3.50747412   1.36150567 
C    0.53222744  -1.19499413  -3.97481414 
O    1.57957191  -1.61013599  -4.20530563 
O   -0.36783107  -1.56711906  -3.05419121 
O    0.04948452  -0.08468109  -4.57827088 
H    2.61128221  -2.74310994   0.83886143 
H    1.65360004  -4.17266157  -0.43099840 
H    0.82103304   0.23230683  -5.17438373 
*
