! EnGrad PBEh-3c
%output 
xyzfile=True 
end 
%scf 
maxiter 250 
end
%output
Print[P_Hirshfeld] = 1
end
% maxcore
4000
*xyz 0 1
Pd   0.36626355   0.12388748  -0.17747932 
O    1.92563164   1.32399522   0.66747276 
C    1.82301634   2.52279266   0.44607220 
O    0.74868499   3.02380116  -0.09209114 
C    2.94317454   3.47673298   0.70358922 
H    2.62779346   4.41649804   1.15615266 
H    3.41961102   3.72383087  -0.24778405 
H    3.69380941   3.01148752   1.33604296 
N   -1.25156634  -0.96399652  -0.89519421 
C   -0.87921452  -2.35585891  -1.20784213 
H   -0.07673218  -2.40139597  -1.93708403 
H   -1.68972177  -2.92294655  -1.68718552 
H   -0.52695692  -2.86399674  -0.31594901 
C   -1.76379163  -0.37182803  -2.14203583 
H   -1.93041450   0.69324487  -2.00613970 
H   -2.70637035  -0.83415970  -2.46169571 
H   -1.07619041  -0.52004555  -2.96837016 
C   -1.84909671  -1.12273083   1.49490701 
C   -2.48950045  -1.84938444   2.49451644 
C   -2.11733828  -1.73840560   3.82438164 
C   -1.10027300  -0.87321894   4.17383065 
C   -0.48508362  -0.12877512   3.17703550 
C   -0.90845534  -0.17180192   1.85621498 
H   -0.80550814  -0.76228957   5.21026729 
H    0.24656680   0.57361687   3.55539092 
H   -3.32668006  -2.49958868   2.26408929 
H   -2.62393478  -2.30493568   4.59449931 
H   -0.68139246   4.00926373   0.69481003 
C   -2.36072083  -1.01382781   0.09091816 
H   -2.96703697  -0.10571918  -0.00010749 
H   -3.07211024  -1.83274639  -0.08410485 
O    1.38780211   0.65578240  -1.90069445 
C    2.10030798  -0.20349524  -2.52651260 
O    2.12250021  -1.37796091  -2.19395626 
C    3.10976800   0.31730973  -3.53405880 
H    3.48109453  -0.48024627  -4.17655677 
H    3.97431046   0.72601249  -3.00467439 
H    2.71774699   1.10109855  -4.18066211 
*
