! EnGrad PBEh-3c
%output 
xyzfile=True 
end 
%scf 
maxiter 250 
end
%output
Print[P_Hirshfeld] = 1
end
% maxcore
4000
*xyz 0 1
Pd   0.14751187   0.17796534   0.03681023 
O    1.57787324   1.57866744   0.60646030 
C    1.54020077   2.74575913   0.58655266 
O    0.55187848   3.16856675   0.01577784 
C    2.78042000   3.57064659   0.66677861 
H    2.55947194   4.51527458   1.12050722 
H    3.28860929   3.76169527  -0.29405771 
H    3.54955834   3.07377334   1.24945994 
N   -1.31540427  -0.92940346  -0.90841927 
C   -0.90971765  -2.27868838  -1.35584650 
H   -0.10990109  -2.21762641  -2.08090354 
H   -1.81140870  -2.75980470  -1.76679405 
H   -0.58592314  -2.88620164  -0.51328968 
C   -1.83386680  -0.19676985  -2.08125377 
H   -1.98739707   0.85467707  -1.86414293 
H   -2.79074790  -0.63697736  -2.37799391 
H   -1.12145610  -0.26363614  -2.89775921 
C   -1.78335580  -1.14288561   1.47627170 
C   -2.36333722  -1.94936181   2.44635797 
C   -1.95045575  -1.86224561   3.76575317 
C   -1.09161878  -0.80607054   4.08387997 
C   -0.48292465   0.02065730   3.10351585 
C   -0.69532019  -0.26081130   1.72192001 
H   -0.80232869  -0.71012878   5.12456303 
H    0.07676142   0.88807553   3.48660088 
H   -3.06159650  -2.71546127   2.14932943 
H   -2.35482062  -2.56389655   4.51254650 
H    0.06281467   3.33402727   0.70589769 
C   -2.38469857  -1.05560312   0.12397818 
H   -2.97818525  -0.13766819   0.04865531 
H   -3.02508133  -1.89946137  -0.14439628 
O    1.34578890   0.53893698  -1.83605409 
C    2.13910387  -0.33484677  -2.36668405 
O    2.16697012  -1.53248587  -2.10661427 
C    3.18849944   0.15329752  -3.42546582 
H    3.54858107  -0.69376256  -4.00894208 
H    4.07283232   0.57144093  -2.92284819 
H    2.82839121   0.91832454  -4.09328030 
*
