! EnGrad PBEh-3c
%output 
xyzfile=True 
end 
%scf 
maxiter 250 
end
%output
Print[P_Hirshfeld] = 1
end
% maxcore
4000
*xyz 0 1
Pd   0.16612300   0.17092812   0.02552527 
O    1.64179186   1.54933816   0.59820284 
C    1.48011363   2.75471410   0.55156182 
O    0.62487728   3.11196696   0.05241161 
C    2.81446017   3.55142190   0.66582675 
H    2.56617613   4.48791996   1.12286871 
H    3.31907232   3.75920406  -0.28541069 
H    3.58707105   3.06603332   1.26806776 
N   -1.30489920  -0.93410117  -0.90754070 
C   -0.90143585  -2.29186892  -1.33827076 
H   -0.10330142  -2.24465424  -2.06281154 
H   -1.79958691  -2.78576409  -1.75416499 
H   -0.57895814  -2.88377454  -0.48399952 
C   -1.82466844  -0.22226225  -2.09154379 
H   -1.97785463   0.83014483  -1.88629460 
H   -2.78171595  -0.66753724  -2.38969280 
H   -1.11331010  -0.30201734  -2.91061499 
C   -1.79745992  -1.12922418   1.47878357 
C   -2.38431683  -1.93428314   2.45457408 
C   -1.97339810  -1.85067538   3.77681297 
C   -1.09647408  -0.81515291   4.10125586 
C   -0.48824924   0.00823046   3.11993266 
C   -0.70855270  -0.24818727   1.73075221 
H   -0.80160381  -0.72403723   5.14164488 
H    0.09613492   0.84457961   3.50364972 
H   -3.09930602  -2.68647103   2.16805888 
H   -2.39979618  -2.52778780   4.52863985 
H   -0.03178071   3.42650276   0.67555953 
C   -2.38155658  -1.04950448   0.12426357 
H   -2.97462862  -0.13213439   0.04132828 
H   -3.03088960  -1.89140948  -0.13772965 
O    1.35361469   0.56168856  -1.85046623 
C    2.13736501  -0.31538221  -2.39135399 
O    2.16089156  -1.51121536  -2.12317047 
C    3.17837962   0.17782383  -3.44814850 
H    3.54173168  -0.66262504  -4.03628304 
H    4.05962700   0.59476007  -2.93541725 
H    2.81538420   0.94501869  -4.10718614 
*
