! EnGrad PBEh-3c
%output 
xyzfile=True 
end 
%scf 
maxiter 250 
end
%output
Print[P_Hirshfeld] = 1
end
% maxcore
4000
*xyz 0 1
Pd   0.22322010   0.18271632  -0.01400570 
O    1.77194813   1.45992044   0.60946399 
C    1.61070623   2.66524232   0.50284482 
O    0.41949795   3.19084648   0.12749854 
C    2.85957612   3.52064630   0.66914935 
H    2.56729153   4.45569015   1.12237341 
H    3.35613432   3.76434001  -0.27712795 
H    3.64678231   3.06535105   1.30017467 
N   -1.29286371  -0.92927965  -0.89776017 
C   -0.91172647  -2.29798145  -1.33389723 
H   -0.10781223  -2.26588062  -2.07246086 
H   -1.79779110  -2.80471008  -1.76368326 
H   -0.57515734  -2.87753371  -0.47659636 
C   -1.82001748  -0.24055511  -2.09699093 
H   -1.97123962   0.81697233  -1.89240902 
H   -2.78422902  -0.68285044  -2.40143374 
H   -1.11691198  -0.32405786  -2.92762995 
C   -1.80799833  -1.10754842   1.49188272 
C   -2.37643035  -1.93024399   2.46175954 
C   -1.97265503  -1.84952180   3.78967415 
C   -1.09980096  -0.83056121   4.13100545 
C   -0.53418343   0.00281566   3.14902259 
C   -0.76068743  -0.20922734   1.77019227 
H   -0.79925051  -0.74268336   5.17310442 
H    0.06836571   0.81482059   3.54371582 
H   -3.11199353  -2.68231579   2.18863041 
H   -2.41785597  -2.49945265   4.54377449 
H   -0.17505910   3.52955437   0.57086970 
C   -2.36905332  -1.04277892   0.10987154 
H   -2.97622436  -0.13571556   0.04106660 
H   -3.03392369  -1.89078749  -0.12151379 
O    1.38214854   0.57843584  -1.87974296 
C    2.14551033  -0.30182161  -2.42798261 
O    2.15108026  -1.48726011  -2.13474051 
C    3.18198969   0.18529467  -3.45664562 
H    3.55125634  -0.64728593  -4.06050872 
H    4.05254575   0.60220336  -2.93933471 
H    2.82031524   0.96180783  -4.12824480 
*
