! EnGrad PBEh-3c
%output 
xyzfile=True 
end 
%scf 
maxiter 250 
end
%output
Print[P_Hirshfeld] = 1
end
% maxcore
4000
*xyz 0 1
Pd   0.24639001   0.18398416  -0.02933082 
O    1.81255016   1.42873909   0.61668112 
C    1.66615103   2.63139062   0.48764253 
O    0.39766104   3.19740125   0.11527020 
C    2.87499236   3.50918394   0.67330158 
H    2.57293122   4.44599528   1.12499650 
H    3.36983314   3.76267985  -0.27376435 
H    3.66597643   3.06056266   1.31147824 
N   -1.28873437  -0.93263937  -0.89415170 
C   -0.91168308  -2.30601506  -1.32233643 
H   -0.10324792  -2.28163232  -2.06362952 
H   -1.78895925  -2.81909092  -1.75783025 
H   -0.57047544  -2.87538711  -0.45991607 
C   -1.81436520  -0.25647681  -2.10328130 
H   -1.96607671   0.80447845  -1.90402632 
H   -2.77891274  -0.69968542  -2.40866261 
H   -1.11297013  -0.34562426  -2.93525081 
C   -1.81476796  -1.10030402   1.49803043 
C   -2.38420418  -1.92207027   2.46567980 
C   -1.98527682  -1.84094816   3.79575691 
C   -1.10015726  -0.83764782   4.13991127 
C   -0.54141350  -0.00881170   3.15621829 
C   -0.77779608  -0.20146414   1.78388114 
H   -0.79865495  -0.74934833   5.18301288 
H    0.07977957   0.78925757   3.55257537 
H   -3.13588983  -2.66710563   2.19925871 
H   -2.44196277  -2.47690213   4.55168461 
H   -0.25331944   3.59249892   0.56632054 
C   -2.36586975  -1.03885028   0.10338656 
H   -2.97479293  -0.13337458   0.03823996 
H   -3.03857847  -1.88603872  -0.11636231 
O    1.38810061   0.58913980  -1.89029109 
C    2.14507059  -0.29047035  -2.44144383 
O    2.14716284  -1.47327450  -2.14292653 
C    3.17637915   0.19770648  -3.46339902 
H    3.54715587  -0.63040923  -4.07644291 
H    4.04352126   0.61437013  -2.94686664 
H    2.81165294   0.97894619  -4.13862433 
*
