! EnGrad PBEh-3c
%output 
xyzfile=True 
end 
%scf 
maxiter 250 
end
%output
Print[P_Hirshfeld] = 1
end
% maxcore
4000
*xyz 0 1
Pd   0.20181849   0.19363555  -0.00137471 
O    1.75720542   1.47344205   0.60048956 
C    1.59055286   2.68996006   0.50227309 
O    0.26909952   3.27121861   0.21917559 
C    2.83722399   3.52852589   0.65767859 
H    2.54880530   4.46487158   1.11191543 
H    3.34249386   3.77916636  -0.28491545 
H    3.63914043   3.08442724   1.29239116 
N   -1.29739580  -0.90812256  -0.88998412 
C   -0.93043688  -2.27342255  -1.37287938 
H   -0.12669192  -2.22832291  -2.12202397 
H   -1.83061166  -2.77090037  -1.79926536 
H   -0.58892528  -2.87950907  -0.53261946 
C   -1.83613782  -0.20097872  -2.07839198 
H   -1.98374808   0.85503834  -1.85343067 
H   -2.81076364  -0.63287183  -2.38711757 
H   -1.13655487  -0.26290208  -2.91911517 
C   -1.78884446  -1.11300022   1.48845602 
C   -2.33267330  -1.95558604   2.45243800 
C   -1.92032473  -1.88459031   3.78158836 
C   -1.09902018  -0.82032755   4.12600578 
C   -0.56072223   0.03742319   3.14966259 
C   -0.75774591  -0.19993401   1.76816541 
H   -0.79735948  -0.73925760   5.16862315 
H   -0.00723558   0.88741669   3.55465143 
H   -3.03850691  -2.74168040   2.17024613 
H   -2.34770478  -2.55812345   4.53012848 
H   -0.06172778   3.40229150   0.50922127 
C   -2.36503370  -1.04881967   0.10757222 
H   -2.98365773  -0.14854034   0.05497974 
H   -3.02389085  -1.90908735  -0.12248428 
O    1.39392248   0.54894730  -1.87207321 
C    2.15653243  -0.32930509  -2.41844205 
O    2.15768333  -1.50962432  -2.11017192 
C    3.20859273   0.14087921  -3.43002751 
H    3.57877240  -0.69973758  -4.02678924 
H    4.08033823   0.56089449  -2.91706460 
H    2.85882404   0.91447634  -4.11540076 
*
