! EnGrad PBEh-3c
%output 
xyzfile=True 
end 
%scf 
maxiter 250 
end
%output
Print[P_Hirshfeld] = 1
end
% maxcore
4000
*xyz 0 1
Pd   0.20120486   0.17817108   0.00123647 
O    1.72176308   1.49439771   0.60512197 
C    1.56035294   2.69974043   0.52162889 
O    0.49868715   3.16043249   0.09854687 
C    2.84218052   3.53251261   0.66786823 
H    2.56686146   4.46811717   1.12256439 
H    3.34184412   3.76235971  -0.28032157 
H    3.62375912   3.06561412   1.28779503 
N   -1.29750430  -0.93113871  -0.90153130 
C   -0.90775866  -2.29562461  -1.33558355 
H   -0.10607297  -2.25769625  -2.06874032 
H   -1.79848352  -2.79740497  -1.76001325 
H   -0.57662284  -2.87994002  -0.47945084 
C   -1.82181078  -0.23350183  -2.09489065 
H   -1.97379021   0.82205132  -1.89005145 
H   -2.78326004  -0.67694605  -2.39690672 
H   -1.11552318  -0.31555958  -2.92106940 
C   -1.80393498  -1.11590606   1.48683201 
C   -2.37947118  -1.93180138   2.45898900 
C   -1.97294154  -1.84996659   3.78471520 
C   -1.09851820  -0.82462015   4.11953474 
C   -0.51647234   0.00490347   3.13780623 
C   -0.74058556  -0.22424933   1.75498516 
H   -0.80015788  -0.73549387   5.16097440 
H    0.07907283   0.82629493   3.52826732 
H   -3.10710154  -2.68391795   2.18069854 
H   -2.41089256  -2.51037798   4.53793895 
H   -0.11981449   3.48982021   0.61123552 
C   -2.37387427  -1.04537213   0.11542075 
H   -2.97560908  -0.13433475   0.04116750 
H   -3.03275382  -1.89102732  -0.12776623 
O    1.37114659   0.57197850  -1.86845458 
C    2.14236970  -0.30705025  -2.41385952 
O    2.15486326  -1.49649666  -2.13027939 
C    3.18059773   0.18241410  -3.45336934 
H    3.54758387  -0.65320031  -4.05116790 
H    4.05527611   0.59933341  -2.93782424 
H    2.81841395   0.95533435  -4.12012510 
*
