! EnGrad PBEh-3c
%output 
xyzfile=True 
end 
%scf 
maxiter 250 
end
%output
Print[P_Hirshfeld] = 1
end
% maxcore
4000
*xyz 0 1
Pd   0.18186642   0.17809698   0.01404896 
O    1.66993870   1.52474889   0.60560399 
C    1.55309479   2.71631485   0.54501230 
O    0.51784492   3.16336218   0.06873619 
C    2.81993642   3.54624721   0.66747579 
H    2.56420000   4.48510172   1.12182346 
H    3.32267069   3.76212040  -0.28526888 
H    3.59703445   3.06855280   1.27398800 
N   -1.30395128  -0.93051373  -0.90401212 
C   -0.90846422  -2.28952474  -1.34288160 
H   -0.10745173  -2.24326441  -2.07312111 
H   -1.80313874  -2.78386259  -1.76245547 
H   -0.57997250  -2.88219525  -0.49163847 
C   -1.82615296  -0.22027218  -2.08997909 
H   -1.97869095   0.83380204  -1.88072005 
H   -2.78595692  -0.66255065  -2.39009495 
H   -1.11766003  -0.29685847  -2.91267384 
C   -1.79652304  -1.12562320   1.48302854 
C   -2.37366026  -1.93812607   2.45443972 
C   -1.96484290  -1.85438909   3.77788570 
C   -1.09603325  -0.81793919   4.10669307 
C   -0.50438957   0.01057748   3.12545597 
C   -0.72428246  -0.23741775   1.74307618 
H   -0.80093974  -0.72635820   5.14786022 
H    0.07824034   0.84854627   3.51326044 
H   -3.09071212  -2.69527881   2.16940042 
H   -2.39069729  -2.52965361   4.52879342 
H   -0.05403748   3.43370873   0.64532971 
C   -2.37777283  -1.04905699   0.11850285 
H   -2.97653693  -0.13553534   0.04386436 
H   -3.02999044  -1.89406498  -0.13375583 
O    1.36201359   0.56007803  -1.85678499 
C    2.14119345  -0.31706164  -2.39686847 
O    2.15922375  -1.50945879  -2.12175599 
C    3.18344367   0.17192726  -3.44331941 
H    3.54794303  -0.66780950  -4.03595955 
H    4.06159928   0.58928746  -2.93243036 
H    2.82200743   0.94200464  -4.11045649 
*
