! EnGrad PBEh-3c
%output 
xyzfile=True 
end 
%scf 
maxiter 250 
end
%output
Print[P_Hirshfeld] = 1
end
% maxcore
4000
*xyz 0 1
Pd   0.34260219   0.15925923  -0.10429895 
O    1.91030101   1.31339002   0.65403337 
C    1.78898862   2.55960365   0.45633623 
O    0.66985471   3.04723231  -0.07586962 
C    2.95500095   3.47737081   0.70565221 
H    2.61545596   4.41708210   1.15001695 
H    3.41320527   3.73056024  -0.25196145 
H    3.69626407   3.02058340   1.33529616 
N   -1.27034318  -0.98023292  -0.91820094 
C   -0.87061493  -2.36185865  -1.23336380 
H   -0.07546064  -2.37851321  -1.95161913 
H   -1.70930705  -2.90216190  -1.68728460 
H   -0.53619220  -2.86653152  -0.33280070 
C   -1.77642139  -0.35002956  -2.14642451 
H   -1.93501005   0.70997128  -1.99343187 
H   -2.71516975  -0.81700771  -2.44682245 
H   -1.07535121  -0.49473952  -2.96126705 
C   -1.86617848  -1.09278213   1.50373935 
C   -2.48118396  -1.87333364   2.48850560 
C   -2.10213750  -1.75532700   3.82197532 
C   -1.10208734  -0.87494187   4.16758436 
C   -0.49619900  -0.09017965   3.18711486 
C   -0.83825793  -0.18977909   1.81137024 
H   -0.80204756  -0.76234460   5.20809247 
H    0.22754645   0.60500291   3.54662391 
H   -3.30129447  -2.52561207   2.25356509 
H   -2.60291267  -2.32886945   4.58737326 
H   -0.61226418   3.94657998   0.67768351 
C   -2.37070756  -1.02176311   0.11070077 
H   -2.96171883  -0.10819082   0.00731809 
H   -3.06117981  -1.84006946  -0.10039993 
O    1.37583667   0.66693418  -1.91870991 
C    2.12353894  -0.22596334  -2.48032245 
O    2.12685340  -1.40958044  -2.20103300 
C    3.11674551   0.30408017  -3.53714795 
H    3.48952284  -0.50282654  -4.16159104 
H    3.97996698   0.70995674  -2.99542746 
H    2.73066476   1.08795732  -4.17541826 
*
