! EnGrad PBEh-3c
%output 
xyzfile=True 
end 
%scf 
maxiter 250 
end
%output
Print[P_Hirshfeld] = 1
end
% maxcore
4000
*xyz 0 1
Pd   0.33224772   0.16920808  -0.08277747 
O    1.90166369   1.33014317   0.64721459 
C    1.77583322   2.55567489   0.46078647 
O    0.64207456   3.05781522  -0.06389223 
C    2.95184660   3.48073462   0.70399893 
H    2.61164280   4.41748909   1.14737876 
H    3.41062993   3.73342011  -0.25393772 
H    3.69797207   3.02298693   1.33593536 
N   -1.27546701  -0.98130246  -0.91979288 
C   -0.87239647  -2.36134813  -1.24161450 
H   -0.07399629  -2.36962748  -1.96048556 
H   -1.71678565  -2.89457428  -1.68949808 
H   -0.53958985  -2.86753308  -0.34111856 
C   -1.78042104  -0.34283052  -2.14615017 
H   -1.93725412   0.71809101  -1.98721661 
H   -2.72021226  -0.80892334  -2.44215321 
H   -1.07621389  -0.48323731  -2.95886579 
C   -1.86731172  -1.08527067   1.50806524 
C   -2.47329800  -1.87782554   2.48751794 
C   -2.09579400  -1.76402225   3.81835016 
C   -1.10093575  -0.87191119   4.16579751 
C   -0.50390732  -0.08069829   3.18275175 
C   -0.81702842  -0.19558897   1.80221552 
H   -0.80130248  -0.76235113   5.20638730 
H    0.22012707   0.62105118   3.54575071 
H   -3.29123747  -2.53833554   2.24858525 
H   -2.59268428  -2.34005979   4.58482524 
H   -0.58215445   3.91869297   0.66943523 
C   -2.37240152  -1.02421530   0.11168378 
H   -2.96079490  -0.10949688   0.01020619 
H   -3.05828020  -1.84395073  -0.10506356 
O    1.37412014   0.66481931  -1.92204960 
C    2.12912667  -0.22899038  -2.46972623 
O    2.12872008  -1.42171064  -2.19966447 
C    3.12131131   0.29600044  -3.53186166 
H    3.49372175  -0.51317921  -4.15562009 
H    3.98291813   0.70262218  -2.99231315 
H    2.73576298   1.08223123  -4.17381519 
*
