! EnGrad PBEh-3c
%output 
xyzfile=True 
end 
%scf 
maxiter 250 
end
%output
Print[P_Hirshfeld] = 1
end
% maxcore
4000
*xyz 0 1
Pd   0.29814371   0.17365227  -0.06137119 
O    1.87013641   1.40455040   0.63197530 
C    1.74829070   2.53883081   0.47316866 
O    0.56215006   3.10230419  -0.00588395 
C    2.91345251   3.49111259   0.69021907 
H    2.60194004   4.42388261   1.14011111 
H    3.40094301   3.74295084  -0.26108353 
H    3.69766854   3.03053527   1.33507790 
N   -1.27925115  -0.96079463  -0.89717669 
C   -0.89300087  -2.34427725  -1.26214249 
H   -0.07375827  -2.34325197  -1.99689827 
H   -1.73932015  -2.87433820  -1.70885683 
H   -0.54883126  -2.87048975  -0.37553947 
C   -1.78873553  -0.32222570  -2.13292880 
H   -1.94594510   0.74673493  -1.96246575 
H   -2.74168315  -0.77724174  -2.43363495 
H   -1.08554538  -0.44135572  -2.95331437 
C   -1.84247896  -1.08451534   1.51219085 
C   -2.44125861  -1.88055957   2.48309176 
C   -2.06264192  -1.79051654   3.80880792 
C   -1.10027981  -0.85611334   4.15671720 
C   -0.52260611  -0.06622478   3.15414890 
C   -0.79989604  -0.20483360   1.80696844 
H   -0.80069579  -0.76031756   5.19924572 
H    0.18511472   0.67746748   3.55053717 
H   -3.25065746  -2.58172412   2.23183727 
H   -2.55050429  -2.38260211   4.57656124 
H   -0.47614748   3.81618739   0.63580684 
C   -2.36714076  -1.02783477   0.09482124 
H   -2.96449905  -0.11570129   0.01849351 
H   -3.05538763  -1.85947783  -0.10960248 
O    1.38113826   0.63449058  -1.91134743 
C    2.13073075  -0.24571756  -2.46770996 
O    2.13479420  -1.43034949  -2.18142770 
C    3.14030313   0.26297947  -3.49775972 
H    3.51008829  -0.55028291  -4.13426397 
H    3.99922841   0.67617856  -2.98218759 
H    2.75539067   1.05568987  -4.16641871 
*
