! EnGrad PBEh-3c
%output 
xyzfile=True 
end 
%scf 
maxiter 250 
end
%output
Print[P_Hirshfeld] = 1
end
% maxcore
4000
*xyz 0 1
Pd   0.31555073   0.17138391  -0.07229716 
O    1.88622824   1.36657224   0.63975358 
C    1.76234867   2.54742819   0.46684867 
O    0.60294430   3.07959659  -0.03549194 
C    2.93304923   3.48581557   0.69725244 
H    2.60689242   4.42061930   1.14382059 
H    3.40588731   3.73808627  -0.25743624 
H    3.69782346   3.02668253   1.33551556 
N   -1.27731969  -0.97126202  -0.90872021 
C   -0.88248419  -2.35299039  -1.25166480 
H   -0.07387976  -2.35671428  -1.97831287 
H   -1.72781833  -2.88466689  -1.69897594 
H   -0.54411435  -2.86898064  -0.35797070 
C   -1.78449173  -0.33274260  -2.13967712 
H   -1.94150914   0.73211480  -1.97509883 
H   -2.73072420  -0.79341233  -2.43798275 
H   -1.08078250  -0.46273249  -2.95614787 
C   -1.85515384  -1.08490087   1.51008510 
C   -2.45761183  -1.87916410   2.48535093 
C   -2.07956306  -1.77699360   3.81367837 
C   -1.10061461  -0.86417671   4.16135188 
C   -0.51306207  -0.07361220   3.16874807 
C   -0.80864057  -0.20011505   1.80454250 
H   -0.80100545  -0.76135551   5.20289085 
H    0.20298536   0.64867206   3.54809411 
H   -3.27136989  -2.55957817   2.24038560 
H   -2.57203336  -2.36088810   4.58077926 
H   -0.53025446   3.86850723   0.65297109 
C   -2.36982590  -1.02598736   0.10342804 
H   -2.96260842  -0.11253450   0.01426358 
H   -3.05686403  -1.85155265  -0.10728577 
O    1.37755615   0.64997065  -1.91680992 
C    2.12991201  -0.23717985  -2.46873908 
O    2.13169391  -1.42594013  -2.19073592 
C    3.13060952   0.27983369  -3.51516568 
H    3.50173465  -0.53134483  -4.14516434 
H    3.99090348   0.68967564  -2.98735577 
H    2.74537251   1.06923683  -4.17019395 
*
