! EnGrad PBEh-3c
%output 
xyzfile=True 
end 
%scf 
maxiter 250 
end
%output
Print[P_Hirshfeld] = 1
end
% maxcore
4000
*xyz 0 1
Pd   0.29809314   0.17375288  -0.06162546 
O    1.87089061   1.37792493   0.63494285 
C    1.74398037   2.56947336   0.47139371 
O    0.55363666   3.10744246  -0.00229350 
C    2.91794451   3.48955070   0.69122805 
H    2.59956562   4.42582466   1.13968379 
H    3.39872357   3.74373934  -0.26122634 
H    3.69278869   3.03389390   1.33131760 
N   -1.27963975  -0.96154212  -0.90245354 
C   -0.88988178  -2.34247653  -1.26662591 
H   -0.07876195  -2.34039781  -1.99777044 
H   -1.74175102  -2.87116678  -1.71169890 
H   -0.54992583  -2.87057278  -0.37984610 
C   -1.79064212  -0.31695196  -2.13139490 
H   -1.94677436   0.74821575  -1.95977344 
H   -2.74221654  -0.77328845  -2.43196345 
H   -1.08732931  -0.43715627  -2.95211738 
C   -1.84476149  -1.08724011   1.50816189 
C   -2.44147799  -1.88681317   2.48068816 
C   -2.05820109  -1.79142509   3.81047572 
C   -1.10106600  -0.85766004   4.15577522 
C   -0.51945519  -0.05989634   3.16410923 
C   -0.80085142  -0.20201854   1.80071260 
H   -0.80037657  -0.75930293   5.19865364 
H    0.17660999   0.67991321   3.54933615 
H   -3.24269165  -2.58365840   2.23123015 
H   -2.54465379  -2.38653724   4.57480006 
H   -0.46837703   3.80684436   0.63324452 
C   -2.36803303  -1.02842029   0.10115380 
H   -2.96513050  -0.11684087   0.01950010 
H   -3.05368362  -1.85975777  -0.10952957 
O    1.38044300   0.63523205  -1.91058779 
C    2.13276675  -0.24832104  -2.46447795 
O    2.13521998  -1.43488504  -2.17989015 
C    3.14065212   0.26134699  -3.50192672 
H    3.51174240  -0.55326557  -4.13064997 
H    4.00239121   0.67341524  -2.97914009 
H    2.75944338   1.05004934  -4.16370373 
*
