! EnGrad PBEh-3c
%output 
xyzfile=True 
end 
%scf 
maxiter 250 
end
%output
Print[P_Hirshfeld] = 1
end
% maxcore
4000
*xyz 0 1
Pd   0.22714731   0.18668541  -0.01746590 
O    1.79756097   1.44645590   0.61048183 
C    1.64850432   2.64752298   0.49286071 
O    0.33175758   3.23585076   0.15562019 
C    2.85999260   3.51327405   0.66685497 
H    2.56456960   4.45152183   1.12008882 
H    3.36232038   3.76951803  -0.27797482 
H    3.66095182   3.06932433   1.30673567 
N   -1.29102601  -0.92135099  -0.88708320 
C   -0.91985072  -2.29398939  -1.33972054 
H   -0.10925235  -2.26328807  -2.08598497 
H   -1.80525682  -2.80409896  -1.77278057 
H   -0.57714558  -2.87721658  -0.48482087 
C   -1.82143501  -0.23844776  -2.09368799 
H   -1.97188765   0.82267916  -1.88665670 
H   -2.79228224  -0.67676838  -2.40193152 
H   -1.12054219  -0.31663691  -2.93109725 
C   -1.80369437  -1.10325702   1.49537838 
C   -2.36575941  -1.93103678   2.46049814 
C   -1.96091346  -1.85811500   3.79224886 
C   -1.10028984  -0.83029081   4.13431287 
C   -0.54908112   0.00727705   3.15295296 
C   -0.76944828  -0.20265837   1.77922200 
H   -0.79776307  -0.74765230   5.17839819 
H    0.04845477   0.82476572   3.55473444 
H   -3.10321222  -2.69465171   2.18929119 
H   -2.41137265  -2.50611359   4.54525000 
H   -0.18152973   3.51994892   0.54062283 
C   -2.36369517  -1.04143024   0.10120817 
H   -2.97767675  -0.13831330   0.04443609 
H   -3.03517423  -1.89529713  -0.11859690 
O    1.39198815   0.57259490  -1.88369653 
C    2.14851157  -0.30283065  -2.43705706 
O    2.15130825  -1.48322879  -2.13035354 
C    3.18779311   0.17663646  -3.44927035 
H    3.55888803  -0.65535946  -4.06015981 
H    4.05701846   0.59582221  -2.93749099 
H    2.82820502   0.95670840  -4.13142467 
*
