! EnGrad PBEh-3c
%output 
xyzfile=True 
end 
%scf 
maxiter 250 
end
%output
Print[P_Hirshfeld] = 1
end
% maxcore
4000
*xyz 0 1
Pd   0.26993605   0.17888556  -0.04409934 
O    1.84178743   1.40512361   0.62523472 
C    1.70608768   2.60044982   0.47991357 
O    0.46557694   3.15840535   0.06037953 
C    2.89494446   3.49896606   0.68155483 
H    2.58567635   4.43602340   1.13190691 
H    3.38427582   3.75397043  -0.26787350 
H    3.68015323   3.04795559   1.32156148 
N   -1.28415875  -0.94559100  -0.89635334 
C   -0.90177590  -2.32323288  -1.29563582 
H   -0.09086303  -2.30979437  -2.03278116 
H   -1.76695530  -2.84454880  -1.73594109 
H   -0.56072885  -2.87320958  -0.42150865 
C   -1.80286325  -0.28579509  -2.11642972 
H   -1.95674136   0.77776891  -1.93075476 
H   -2.76208669  -0.73498141  -2.42004433 
H   -1.10051089  -0.38932436  -2.94377488 
C   -1.82846271  -1.09359693   1.50308835 
C   -2.41142668  -1.90436471   2.47267511 
C   -2.01958942  -1.81789309   3.80324181 
C   -1.10075796  -0.84679769   4.14725721 
C   -0.53121317  -0.03323646   3.15968151 
C   -0.78838810  -0.20227248   1.79218338 
H   -0.79933932  -0.75467901   5.19061463 
H    0.12574754   0.73740250   3.55147863 
H   -3.18733484  -2.62770960   2.21458535 
H   -2.49175696  -2.43399489   4.56307219 
H   -0.35453262   3.69298084   0.59648468 
C   -2.36631141  -1.03358370   0.10117538 
H   -2.97010987  -0.12536288   0.02939674 
H   -3.04633758  -1.87386269  -0.11312823 
O    1.38502506   0.61037252  -1.89991515 
C    2.13901558  -0.26995490  -2.45359510 
O    2.14160512  -1.45407178  -2.16022998 
C    3.15936151   0.22772694  -3.48102838 
H    3.53045363  -0.59378476  -4.10267373 
H    4.02407176   0.64261999  -2.96261033 
H    2.78673361   1.01300404  -4.15089277 
*
