! EnGrad PBEh-3c
%output 
xyzfile=True 
end 
%scf 
maxiter 250 
end
%output
Print[P_Hirshfeld] = 1
end
% maxcore
4000
*xyz 0 1
C   -1.45562130   0.17912658  -0.66345119 
C   -2.14842574  -0.88364679  -1.23075771 
C   -1.85508600  -2.18630551  -0.86615538 
C   -0.86034918  -2.45198686   0.05981938 
C   -0.51191982  -0.14138716   0.29130411 
C   -0.19235696  -1.41847262   0.69847306 
H   -1.73102056   1.15863131  -1.03455271 
H   -2.92337146  -0.69327924  -1.96078009 
H   -2.41825027  -3.00241119  -1.30455451 
H    0.57700368  -1.68150880   1.41251145 
H   -0.63403055  -3.47548777   0.32833815 
Pd   1.45849793   1.09078754  -0.15798590 
O    3.37910052   1.38657959  -1.08227718 
O    2.67961261  -0.54815573  -0.39786611 
O    0.34895920   2.79246877   0.16765357 
C   -0.07058540   2.90309493   1.31046355 
O    0.27177049   2.08892157   2.24756056 
H   -1.13820665   1.37535822   2.89336252 
C    3.55475726   0.15869422  -0.96194879 
H    4.46845462  -0.33409008  -1.31490156 
H   -0.79892589   3.68305901   1.56575786 
*
