! EnGrad PBEh-3c
%output 
xyzfile=True 
end 
%scf 
maxiter 250 
end
%output
Print[P_Hirshfeld] = 1
end
% maxcore
4000
*xyz 0 1
C   -1.47392018   0.17347478  -0.57495368 
C   -2.09543092  -0.89064753  -1.21727003 
C   -1.70703929  -2.18801890  -0.96377965 
C   -0.84128622  -2.43728004   0.07925998 
C   -0.37615929  -0.09871114   0.25727663 
C   -0.21605498  -1.40020806   0.74583134 
H   -1.78113779   1.20117234  -0.77318194 
H   -2.74549108  -0.67206106  -2.02554788 
H   -2.04491970  -3.00588672  -1.59438941 
H    0.47667096  -1.56706716   1.56820299 
H   -0.49658459  -3.41603572   0.29467587 
Pd   1.25778665   0.94574528  -0.04324419 
O    3.16972332   1.28401557  -1.21061150 
O    2.56646702  -0.61017380  -0.27571643 
O    0.35944003   2.73789413   0.30755837 
C   -0.18033135   2.91276437   1.33271325 
O    0.04029340   2.00625105   2.37304407 
H   -0.76489643   1.49666343   2.47504750 
C    3.35721341   0.07894975  -0.98188416 
H    4.22661726  -0.44274761  -1.38665756 
H   -0.75586707   3.86641176   1.59477471 
*
