! EnGrad PBEh-3c
%output 
xyzfile=True 
end 
%scf 
maxiter 250 
end
%output
Print[P_Hirshfeld] = 1
end
% maxcore
4000
*xyz 0 1
C   -1.45752082   0.17519989  -0.56826855 
C   -2.07911598  -0.88887498  -1.22514891 
C   -1.68963604  -2.19193228  -0.97499195 
C   -0.82237690  -2.44091823   0.07558920 
C   -0.38893643  -0.09349197   0.29117147 
C   -0.20766195  -1.39175616   0.75069363 
H   -1.77437572   1.20432861  -0.75675818 
H   -2.75122438  -0.65701606  -2.03615397 
H   -1.98124357  -2.98264228  -1.62287130 
H    0.48182852  -1.56648833   1.57872107 
H   -0.48665729  -3.43864237   0.31335446 
Pd   1.27951906   0.95154365  -0.04880087 
O    3.11542069   1.26501170  -1.19298531 
O    2.53277649  -0.63113230  -0.27791198 
O    0.31376438   2.76355756   0.25059928 
C   -0.11460443   2.94474724   1.37615476 
O    0.00166836   2.05479938   2.39721367 
H   -0.76198532   1.43144401   2.43584128 
C    3.32417728   0.05415243  -0.98345107 
H    4.19542593  -0.46026878  -1.39781867 
H   -0.75578866   3.86434579   1.59065222 
*
