! EnGrad PBEh-3c
%output 
xyzfile=True 
end 
%scf 
maxiter 250 
end
%output
Print[P_Hirshfeld] = 1
end
% maxcore
4000
*xyz 0 1
C   -1.45116261   0.17625211  -0.55890550 
C   -2.07315402  -0.87898138  -1.22722579 
C   -1.67805606  -2.18763195  -0.97500123 
C   -0.81171299  -2.43968367   0.08539392 
C   -0.37971870  -0.08420375   0.29604547 
C   -0.20498980  -1.38345999   0.75256555 
H   -1.76975674   1.19712421  -0.75658652 
H   -2.75795456  -0.65630324  -2.04319982 
H   -1.97517104  -2.99036698  -1.63780812 
H    0.47922797  -1.56886460   1.57238947 
H   -0.48676026  -3.45013969   0.31507928 
Pd   1.25651765   0.94924051  -0.04209325 
O    3.11152188   1.25986218  -1.19132184 
O    2.52177316  -0.63636329  -0.27751103 
O    0.30992411   2.77252445   0.25960983 
C   -0.13412011   2.93081886   1.40761529 
O   -0.02666123   2.08853961   2.37889332 
H   -0.73767649   1.43518279   2.41850098 
C    3.31900877   0.04891707  -0.98296466 
H    4.19320974  -0.46520816  -1.40578358 
H   -0.73123708   3.84558485   1.58543703 
*
