! EnGrad PBEh-3c
%output 
xyzfile=True 
end 
%scf 
maxiter 250 
end
%output
Print[P_Hirshfeld] = 1
end
% maxcore
4000
*xyz 0 1
C   -1.44805687   0.17785101  -0.55369670 
C   -2.06733724  -0.87108399  -1.23103954 
C   -1.66971656  -2.18401240  -0.97420860 
C   -0.80276982  -2.43863229   0.09093738 
C   -0.38288455  -0.07764453   0.30746741 
C   -0.20210633  -1.37959890   0.75491447 
H   -1.76316800   1.18885030  -0.76897380 
H   -2.76829040  -0.65754072  -2.04343555 
H   -1.98419912  -2.99432492  -1.63655482 
H    0.48252351  -1.57774042   1.56065884 
H   -0.49349214  -3.46032253   0.31699134 
Pd   1.24035909   0.95944951  -0.03995822 
O    3.11920006   1.25745351  -1.18431422 
O    2.51566501  -0.63793477  -0.28334015 
O    0.29925748   2.77992803   0.29719397 
C   -0.14870216   2.92771902   1.38031575 
O   -0.04319634   2.11468701   2.37836333 
H   -0.72361146   1.42600223   2.40955940 
C    3.32017955   0.04656327  -0.98089106 
H    4.19954647  -0.46519261  -1.41099457 
H   -0.70489251   3.82566425   1.58275511 
*
