! EnGrad PBEh-3c
%output 
xyzfile=True 
end 
%scf 
maxiter 250 
end
%output
Print[P_Hirshfeld] = 1
end
% maxcore
4000
*xyz 0 1
C   -1.44736996   0.17788975  -0.55344077 
C   -2.06553678  -0.87050519  -1.23270729 
C   -1.66758704  -2.18295318  -0.97422866 
C   -0.80107179  -2.43911030   0.09091226 
C   -0.38445312  -0.07574065   0.31149332 
C   -0.20097117  -1.37945442   0.75511564 
H   -1.76019807   1.18718333  -0.77485998 
H   -2.77165268  -0.65805635  -2.04168769 
H   -1.98801900  -2.99409124  -1.63361154 
H    0.48586999  -1.58144228   1.55679693 
H   -0.49687241  -3.46282291   0.31817330 
Pd   1.23697113   0.96340761  -0.03994318 
O    3.12251634   1.25736039  -1.18073731 
O    2.51324053  -0.63841638  -0.28629093 
O    0.30121083   2.77926294   0.29356272 
C   -0.15745086   2.93040242   1.38118097 
O   -0.04983155   2.11959999   2.38395601 
H   -0.71797165   1.42217715   2.40714111 
C    3.32115626   0.04549032  -0.98026746 
H    4.20168966  -0.46453600  -1.41211374 
H   -0.69887885   3.82341627   1.58276754 
*
