! EnGrad PBEh-3c
%output 
xyzfile=True 
end 
%scf 
maxiter 250 
end
%output
Print[P_Hirshfeld] = 1
end
% maxcore
4000
*xyz 0 1
C   -1.47358112   0.16452851  -0.65892670 
C   -2.14847599  -0.88541067  -1.23263702 
C   -1.84748834  -2.18873773  -0.87692078 
C   -0.86106279  -2.45711484   0.06730237 
C   -0.46817499  -0.09722972   0.29809228 
C   -0.20502182  -1.42631474   0.69640822 
H   -1.73137051   1.16351657  -1.01660660 
H   -2.91413105  -0.69298014  -1.96907072 
H   -2.39800502  -3.00154650  -1.31893764 
H    0.57062221  -1.67196779   1.42320876 
H   -0.62434130  -3.47513278   0.32260989 
Pd   1.41757938   1.06465034  -0.13560240 
O    3.37657565   1.38435652  -1.09633299 
O    2.66667740  -0.54561168  -0.38802274 
O    0.35676268   2.79966607   0.15489775 
C   -0.07833918   2.89571768   1.32525683 
O    0.22664515   2.06551075   2.27168184 
H   -1.08589060   1.39807555   2.85665751 
C    3.55060417   0.15543327  -0.96288783 
H    4.46076692  -0.34001304  -1.32276698 
H   -0.79203371   3.68993599   1.56231682 
*
