! EnGrad PBEh-3c
%output 
xyzfile=True 
end 
%scf 
maxiter 250 
end
%output
Print[P_Hirshfeld] = 1
end
% maxcore
4000
*xyz 0 1
C   -1.48465388   0.15767528  -0.64283484 
C   -2.14844790  -0.89197184  -1.23613704 
C   -1.83211055  -2.19107264  -0.88967185 
C   -0.86471151  -2.46131741   0.07126945 
C   -0.42650449  -0.05713611   0.30397614 
C   -0.21564099  -1.42130094   0.69964292 
H   -1.73565341   1.16667653  -0.99080437 
H   -2.90007842  -0.69248664  -1.98182759 
H   -2.36813631  -3.00222427  -1.34268627 
H    0.55811129  -1.66031523   1.43792814 
H   -0.60904856  -3.47602523   0.31483797 
Pd   1.36963514   1.03373479  -0.10960834 
O    3.36841536   1.37648743  -1.11567210 
O    2.65285910  -0.54212613  -0.37402173 
O    0.36011066   2.80777258   0.16188195 
C   -0.08219278   2.88617348   1.32474508 
O    0.16491210   2.03495852   2.30123667 
H   -1.01413216   1.42887551   2.80517357 
C    3.53788244   0.15174538  -0.96335711 
H    4.44755836  -0.35028413  -1.33398589 
H   -0.78210199   3.70013173   1.55904894 
*
