! EnGrad PBEh-3c
%output 
xyzfile=True 
end 
%scf 
maxiter 250 
end
%output
Print[P_Hirshfeld] = 1
end
% maxcore
4000
*xyz 0 1
C   -1.48587374   0.16260243  -0.61068915 
C   -2.14161272  -0.89878157  -1.23815136 
C   -1.80535629  -2.19480724  -0.90847638 
C   -0.86615403  -2.45835889   0.07282514 
C   -0.40332971  -0.03500013   0.31075395 
C   -0.22278842  -1.39881379   0.71205301 
H   -1.74899710   1.16754393  -0.95098904 
H   -2.87699582  -0.69147358  -2.00283947 
H   -2.31950625  -3.00544685  -1.38390695 
H    0.53450917  -1.64562941   1.46114301 
H   -0.58347376  -3.47747767   0.30320377 
Pd   1.31808441   1.00224299  -0.08021833 
O    3.34779708   1.36079175  -1.14498226 
O    2.63679023  -0.53986914  -0.35123959 
O    0.36279053   2.81247967   0.18607421 
C   -0.08993711   2.87735304   1.32023922 
O    0.07744320   1.99540243   2.33426888 
H   -0.91059985   1.47251375   2.72784025 
C    3.51321737   0.14440169  -0.96457475 
H    4.42130714  -0.36819733  -1.35031760 
H   -0.76402618   3.71414886   1.55594543 
*
