! EnGrad PBEh-3c
%output 
xyzfile=True 
end 
%scf 
maxiter 250 
end
%output
Print[P_Hirshfeld] = 1
end
% maxcore
4000
*xyz 0 1
C   -1.47206019   0.17857942  -0.56020681 
C   -2.10206223  -0.87531962  -1.20847979 
C   -1.73209699  -2.19309302  -0.95371483 
C   -0.84340927  -2.42263662   0.09751666 
C   -0.38338485  -0.08587921   0.26186870 
C   -0.22099893  -1.37380161   0.74204288 
H   -1.78086352   1.17676300  -0.82342308 
H   -2.78720679  -0.68557510  -2.03669666 
H   -2.14919150  -3.02936539  -1.53903839 
H    0.47267521  -1.59067245   1.52825779 
H   -0.51699181  -3.44120802   0.28207754 
Pd   1.23220174   0.94777017  -0.04039424 
O    3.24451761   1.31318120  -1.21005255 
O    2.59404641  -0.57945232  -0.28628276 
O    0.37958403   2.74945606   0.33893134 
C   -0.22421790   2.88270575   1.34175376 
O    0.02407500   2.00163427   2.31679458 
H   -0.75089040   1.54261604   2.52412760 
C    3.41296350   0.10703635  -0.97631342 
H    4.29614185  -0.42005590  -1.38044201 
H   -0.71185108   3.78078260   1.57020392 
*
