! EnGrad PBEh-3c
%output 
xyzfile=True 
end 
%scf 
maxiter 250 
end
%output
Print[P_Hirshfeld] = 1
end
% maxcore
4000
*xyz 0 1
C   -1.47636676   0.17504865  -0.57224509 
C   -2.10265442  -0.88118365  -1.21408171 
C   -1.72619959  -2.18903182  -0.95353513 
C   -0.84285118  -2.43177269   0.08957063 
C   -0.38276126  -0.09114024   0.26026797 
C   -0.21970681  -1.39055681   0.74178562 
H   -1.77964132   1.18617235  -0.81064990 
H   -2.77287180  -0.68134698  -2.02758025 
H   -2.11892394  -3.02061866  -1.55283008 
H    0.47779385  -1.58392551   1.54055967 
H   -0.51352333  -3.42844974   0.28733485 
Pd   1.24871862   0.95312908  -0.04477042 
O    3.22175905   1.30455434  -1.20757404 
O    2.58805356  -0.58963171  -0.28580546 
O    0.38385948   2.74110354   0.30594208 
C   -0.21894644   2.90789630   1.34345578 
O    0.04787658   1.99738902   2.34400098 
H   -0.77432475   1.52002061   2.52031634 
C    3.39697985   0.09799461  -0.97782700 
H    4.27478934  -0.42555141  -1.38037636 
H   -0.73167002   3.81068867   1.58031506 
*
