! EnGrad PBEh-3c
%output 
xyzfile=True 
end 
%scf 
maxiter 250 
end
%output
Print[P_Hirshfeld] = 1
end
% maxcore
4000
*xyz 1 1
Ir   0.47449973  -0.71383115   0.85969426 
C   -0.08144409  -2.75454329   1.57481954 
C    0.69513830  -2.10368263   2.55333294 
C    1.92982147  -2.27694702   0.65529745 
C    0.69097605  -2.85926283   0.37779095 
C    1.96332827  -1.81184967   2.01222559 
N   -1.00165465  -0.01703537  -0.44244628 
C   -2.44247762   0.04044692   0.02715907 
C   -2.87872399   1.44294259   0.40408971 
H   -3.91745163   1.42006406   0.75597833 
H   -2.82614999   2.12234465  -0.44011272 
H   -2.31002909   1.83378089   1.22571558 
C   -3.40806345  -0.57003975  -0.98841385 
H   -2.46432065  -0.56236502   0.90794551 
H   -4.39473610  -0.66716134  -0.50081993 
H   -3.56916547   0.05655284  -1.86088025 
H   -3.11109869  -1.55538226  -1.30321367 
C   -0.73567355   0.28072739  -1.67229207 
C    0.55495332   0.20121383  -2.28527575 
H   -1.54527348   0.54926749  -2.30856956 
C    1.85874108   0.15596927  -1.59052698 
C    2.85028352  -0.02267624  -2.60851202 
S    0.73261047   0.13152010  -4.00370662 
C    2.43365028  -0.02010267  -3.88772962 
H    2.19249404   0.99490829  -0.83212890 
H    3.90753577  -0.01466944  -2.33913983 
H    3.04429445  -0.12757850  -4.76894661 
H   -0.95382758  -3.37055557   1.77836608 
H    0.39131074  -1.98098511   3.60766045 
H    2.80583602  -1.43125799   2.51265678 
O    1.74658966   1.80856235   0.70229106 
O    0.05413218   1.03158568   1.89393730 
C    0.95458764   2.02156130   1.44896695 
C    0.76080457   3.39908237   2.13126022 
H    0.83348121   4.14701614   1.33924618 
H    1.63289346   3.56107560   2.77964064 
H   -0.12874629   3.52165437   2.69650859 
H    2.83720979  -2.40193576   0.05090718 
H    0.42324795  -3.45906050  -0.46308882 
*
