! EnGrad PBEh-3c
%output 
xyzfile=True 
end 
%scf 
maxiter 250 
end
%output
Print[P_Hirshfeld] = 1
end
% maxcore
4000
*xyz 1 1
Ir   0.45135291  -0.73342461   0.91097792 
C   -0.07975057  -2.76327066   1.54201728 
C    0.68973490  -2.10454128   2.56774636 
C    1.98583297  -2.32266041   0.69664219 
C    0.72666895  -2.88743731   0.38764882 
C    1.95761718  -1.81516075   2.03412560 
N   -1.01495047  -0.03074004  -0.45921673 
C   -2.43458921   0.03534842   0.01507543 
C   -2.87626157   1.43965785   0.42687475 
H   -3.91562994   1.39874754   0.75435530 
H   -2.82235083   2.13146993  -0.41756687 
H   -2.27967889   1.82435573   1.25582590 
C   -3.41792455  -0.56320175  -0.98579691 
H   -2.46151729  -0.59649347   0.91729939 
H   -4.38486450  -0.66165857  -0.50632328 
H   -3.57438118   0.07343753  -1.86022596 
H   -3.11398604  -1.55903924  -1.32713123 
C   -0.71963961   0.27955081  -1.66714588 
C    0.60253174   0.21933917  -2.22895973 
H   -1.56577695   0.55812496  -2.33008119 
C    1.84586550   0.30486190  -1.72767496 
C    2.86961689  -0.00942784  -2.59142202 
S    0.72795668   0.09756366  -3.95820903 
C    2.41526000  -0.05228600  -3.88107306 
H    2.08658072   0.82119686  -0.80036723 
H    3.90514157  -0.02936873  -2.33117978 
H    3.03048081  -0.11772827  -4.76724669 
H   -0.99833202  -3.30462247   1.72181359 
H    0.35053119  -1.94589307   3.57036940 
H    2.80441414  -1.39188674   2.56779515 
O    1.79333631   1.80386042   0.67853109 
O    0.11198229   1.06877133   1.85450782 
C    0.91298698   1.99962243   1.48950773 
C    0.77331605   3.36881665   2.10885086 
H    0.82763975   4.14343070   1.33605931 
H    1.62940676   3.55675233   2.76127430 
H   -0.13793856   3.52367223   2.69752404 
H    2.84102427  -2.32492099   0.05147181 
H    0.45650183  -3.43519383  -0.50909785 
*
