! EnGrad PBEh-3c
%output 
xyzfile=True 
end 
%scf 
maxiter 250 
end
%output
Print[P_Hirshfeld] = 1
end
% maxcore
4000
*xyz 1 1
Ir   0.44313482  -0.74441428   0.92729067 
C   -0.07749875  -2.76355934   1.53333725 
C    0.68576235  -2.10684390   2.56412271 
C    1.99777939  -2.33435019   0.71341591 
C    0.74471691  -2.89987226   0.38805250 
C    1.96302018  -1.81554931   2.04971305 
N   -1.01496750  -0.03801226  -0.45850711 
C   -2.43413462   0.02916055   0.01766669 
C   -2.86920884   1.43692849   0.43577016 
H   -3.91437581   1.39010346   0.75529693 
H   -2.82014763   2.13433086  -0.40537530 
H   -2.27046677   1.81867426   1.26493492 
C   -3.41603282  -0.56294024  -0.99064829 
H   -2.46010421  -0.60614699   0.91374068 
H   -4.38526851  -0.65996343  -0.50635547 
H   -3.57648945   0.07987515  -1.85867649 
H   -3.11680079  -1.55581056  -1.33606524 
C   -0.72435357   0.28412451  -1.66559459 
C    0.58200873   0.23090135  -2.24322182 
H   -1.55992936   0.55795780  -2.33294938 
C    1.86188285   0.35213577  -1.73272641 
C    2.88221280   0.00240670  -2.61095198 
S    0.72232648   0.07929229  -3.94943585 
C    2.41312650  -0.06719338  -3.88337198 
H    2.04764016   0.75710521  -0.77351018 
H    3.90930280  -0.03438128  -2.32502315 
H    3.02140320  -0.11656650  -4.76557828 
H   -1.01919513  -3.27432994   1.69557683 
H    0.33040471  -1.92918907   3.56185263 
H    2.79721115  -1.37709568   2.58773034 
O    1.80412163   1.80282404   0.67921174 
O    0.11271913   1.05849077   1.85193168 
C    0.92909368   2.00515026   1.48066929 
C    0.76969550   3.36783911   2.10668176 
H    0.82500284   4.13715827   1.33535570 
H    1.62817818   3.55333774   2.75325274 
H   -0.13515741   3.52126749   2.69327454 
H    2.84763747  -2.29190660   0.04999294 
H    0.47345488  -3.42135226  -0.52479154 
*
