! EnGrad PBEh-3c
%output 
xyzfile=True 
end 
%scf 
maxiter 250 
end
%output
Print[P_Hirshfeld] = 1
end
% maxcore
4000
*xyz 1 1
Ir   0.52610929  -0.78967297   0.57166314 
C    0.05381788  -2.88786485   1.03199435 
C    0.11823606  -2.17982600   2.28685477 
C    2.16342367  -2.00368111   1.20838964 
C    1.31270795  -2.79222672   0.38451512 
C    1.42322551  -1.69405966   2.39962040 
N   -1.11071604  -0.14055660  -0.51263643 
C   -2.48556220  -0.15344765   0.01185392 
C   -2.78574636   1.05928553   0.87833739 
H   -3.79849691   1.02977284   1.27976522 
H   -2.68995036   1.96917083   0.28880749 
H   -2.12648834   1.09571949   1.74139939 
C   -3.59139628  -0.34310349  -1.01624753 
H   -2.54530650  -1.01698681   0.67775929 
H   -4.54625206  -0.50815329  -0.51978162 
H   -3.72053200   0.53471644  -1.65105768 
H   -3.40586220  -1.21297966  -1.64691051 
C   -0.89349168   0.20465916  -1.72832243 
C    0.40968953   0.19791888  -2.30228646 
H   -1.70739598   0.50241467  -2.38116564 
C    1.50424094  -0.18923902  -1.57513220 
C    2.67785982  -0.23130332  -2.36230183 
S    0.79465028   0.34130999  -3.96304145 
C    2.43767540   0.05226966  -3.67952599 
H    2.24728854   1.29882889  -0.82331751 
H    3.68753166  -0.43094216  -2.03109982 
H    3.13969503   0.01551696  -4.49888662 
H   -0.69379955  -3.62982190   0.79027611 
H   -0.63288434  -2.17181667   3.06054157 
H    1.84190536  -1.23412698   3.28193121 
O    2.08991885   2.14796473   0.18833420 
O    0.46789326   1.20679703   1.31234311 
C    1.14071974   2.20291603   1.04596119 
C    0.99195070   3.48674928   1.77488027 
H    0.90651565   4.30870312   1.06472253 
H    1.86985387   3.69644228   2.38756764 
H    0.12097312   3.48170858   2.42258699 
H    3.22330100  -1.85397106   1.08771269 
H    1.58469058  -3.36905737  -0.48610068 
*
