! EnGrad PBEh-3c
%output 
xyzfile=True 
end 
%scf 
maxiter 250 
end
%output
Print[P_Hirshfeld] = 1
end
% maxcore
4000
*xyz 1 1
Ir   0.57536726  -0.77257340   0.52042268 
C    0.05451262  -2.90055660   1.06128697 
C    0.11733650  -2.18591899   2.27761505 
C    2.17399789  -2.02239495   1.22981940 
C    1.28898306  -2.80237347   0.38684940 
C    1.46370869  -1.69284688   2.38565980 
N   -1.11641915  -0.14471149  -0.52609398 
C   -2.50466945  -0.15788488   0.02799385 
C   -2.78259546   1.07299625   0.87275773 
H   -3.80332492   1.03431442   1.26093845 
H   -2.69148201   1.98037690   0.27725692 
H   -2.12713844   1.11918959   1.73266199 
C   -3.58209520  -0.34897489  -1.02607913 
H   -2.53633532  -1.01580714   0.68322647 
H   -4.53829276  -0.51168458  -0.51800597 
H   -3.72047061   0.52457582  -1.66017818 
H   -3.39950659  -1.22203458  -1.64590313 
C   -0.90131581   0.21348383  -1.74208191 
C    0.41999158   0.17834825  -2.29949426 
H   -1.71557348   0.50536660  -2.37779443 
C    1.49585055  -0.17605883  -1.49014100 
C    2.68394067  -0.22641439  -2.35538638 
S    0.78267239   0.35250582  -3.97962782 
C    2.42538807   0.04180036  -3.68453312 
H    2.18750704   1.35643832  -0.69058372 
H    3.69272510  -0.42802451  -2.02954473 
H    3.13629284   0.01779044  -4.50526182 
H   -0.71560210  -3.60659982   0.79523999 
H   -0.61877497  -2.16207855   3.07217640 
H    1.86478145  -1.22271311   3.26687118 
O    2.12024923   2.11787730   0.09413434 
O    0.43576468   1.19036516   1.33246251 
C    1.17927361   2.14828839   1.01669059 
C    0.98697380   3.48937636   1.78006741 
H    0.90479889   4.30756031   1.07036314 
H    1.86640874   3.69039775   2.39385631 
H    0.11271345   3.47926737   2.42872432 
H    3.22168035  -1.85987432   1.06198780 
H    1.56158255  -3.36233989  -0.49747633 
*
