! EnGrad PBEh-3c
%output 
xyzfile=True 
end 
%scf 
maxiter 250 
end
%output
Print[P_Hirshfeld] = 1
end
% maxcore
4000
*xyz 1 1
Ir   0.58338740  -0.77066375   0.51083561 
C    0.05236536  -2.90582866   1.06664943 
C    0.12598796  -2.18140841   2.28102304 
C    2.17838383  -2.03258676   1.22378768 
C    1.28808801  -2.80228054   0.38753450 
C    1.46284973  -1.69384100   2.38561122 
N   -1.11670631  -0.14560342  -0.52960285 
C   -2.50332630  -0.15559783   0.02689568 
C   -2.78461039   1.07646881   0.87001805 
H   -3.80420016   1.03689941   1.25518989 
H   -2.69199426   1.98349211   0.27280977 
H   -2.12718848   1.12689240   1.73053050 
C   -3.58246239  -0.35139889  -1.02521289 
H   -2.53448020  -1.01697771   0.68704660 
H   -4.53513433  -0.51291989  -0.51890855 
H   -3.71993682   0.52154227  -1.66339058 
H   -3.39685480  -1.22582237  -1.64575549 
C   -0.89947058   0.21332072  -1.74337006 
C    0.42165982   0.17388075  -2.29364696 
H   -1.71957004   0.50746963  -2.37906544 
C    1.49495699  -0.17400086  -1.48654424 
C    2.67689023  -0.22440473  -2.34980037 
S    0.78046866   0.35375645  -3.97867124 
C    2.42404206   0.03838450  -3.68081286 
H    2.17323458   1.37391558  -0.65430163 
H    3.69532797  -0.42654359  -2.02974925 
H    3.13416010   0.01800908  -4.50600820 
H   -0.72304422  -3.59980450   0.79797206 
H   -0.61309417  -2.15871854   3.07494004 
H    1.87343880  -1.21908265   3.26233233 
O    2.11682237   2.10848730   0.08224832 
O    0.44222705   1.19476692   1.32906618 
C    1.17981406   2.13897766   1.01430753 
C    0.99114303   3.48000335   1.77585071 
H    0.90422972   4.30744342   1.07156183 
H    1.86503953   3.68896454   2.39627241 
H    0.11060944   3.47702596   2.42961527 
H    3.22233025  -1.86293863   1.05374930 
H    1.55323867  -3.36095045  -0.49993507 
*
