! EnGrad PBEh-3c
%output 
xyzfile=True 
end 
%scf 
maxiter 250 
end
%output
Print[P_Hirshfeld] = 1
end
% maxcore
4000
*xyz 1 1
Ir   0.62172564  -0.77210834   0.46875012 
C    0.05114563  -2.92005703   1.09870232 
C    0.16071624  -2.16703530   2.29848017 
C    2.19718346  -2.08210309   1.20009439 
C    1.27756867  -2.81318555   0.38338531 
C    1.48644848  -1.69417041   2.37302993 
N   -1.11376396  -0.15138572  -0.54499098 
C   -2.48878356  -0.15185714   0.02338214 
C   -2.78810858   1.09763277   0.85088019 
H   -3.81230339   1.05340929   1.22112101 
H   -2.69565321   2.00154837   0.24541292 
H   -2.12969190   1.17580545   1.71461210 
C   -3.57593007  -0.36566841  -1.02656140 
H   -2.52229051  -1.01485511   0.70420893 
H   -4.52311430  -0.52240780  -0.52116299 
H   -3.71627430   0.49945926  -1.68103141 
H   -3.38107614  -1.24647821  -1.64240548 
C   -0.90341976   0.21074190  -1.75423299 
C    0.41573636   0.15760608  -2.27646196 
H   -1.73536018   0.52002385  -2.38585645 
C    1.48505796  -0.17910814  -1.47696209 
C    2.65667157  -0.21853339  -2.31446453 
S    0.77225349   0.35699760  -3.95530576 
C    2.41299205   0.02094149  -3.65240753 
H    2.09320581   1.37490857  -0.52858254 
H    3.69241681  -0.41515669  -2.02919421 
H    3.11458191   0.01811223  -4.49546073 
H   -0.77471442  -3.55522949   0.81358839 
H   -0.57504147  -2.13317804   3.08882199 
H    1.92423741  -1.19459612   3.22795360 
O    2.08467726   2.17426782   0.12864770 
O    0.47939600   1.18730899   1.29802820 
C    1.18302153   2.13329628   1.00684177 
C    1.00872777   3.43299231   1.75452315 
H    0.90472812   4.29378450   1.08097813 
H    1.85689537   3.67448565   2.40540154 
H    0.11777943   3.45187244   2.41583730 
H    3.23225906  -1.88580863   1.00165041 
H    1.50269643  -3.35382295  -0.51695431 
*
