! EnGrad PBEh-3c
%output 
xyzfile=True 
end 
%scf 
maxiter 250 
end
%output
Print[P_Hirshfeld] = 1
end
% maxcore
4000
*xyz 1 1
Ir   0.63885493  -0.77593374   0.45438727 
C    0.05073923  -2.92269233   1.11322799 
C    0.17423992  -2.16545736   2.30195725 
C    2.20630506  -2.10042954   1.19419126 
C    1.26687174  -2.82351973   0.38107142 
C    1.51219785  -1.69294233   2.36039717 
N   -1.11095259  -0.15565625  -0.54948115 
C   -2.48356534  -0.15279871   0.02473866 
C   -2.78628525   1.10822741   0.83986784 
H   -3.81626659   1.06214350   1.20274756 
H   -2.69773297   2.01059036   0.23027512 
H   -2.13209449   1.20243158   1.70454528 
C   -3.56839746  -0.37337977  -1.02931926 
H   -2.51480108  -1.00941486   0.71023261 
H   -4.51844827  -0.52818945  -0.52118568 
H   -3.71405485   0.48628181  -1.68949788 
H   -3.37299159  -1.25664570  -1.63968432 
C   -0.91285513   0.21027036  -1.76096531 
C    0.40857892   0.15299281  -2.27686566 
H   -1.74019623   0.52609944  -2.38847066 
C    1.47831081  -0.18388167  -1.46282028 
C    2.65498189  -0.21826847  -2.30197871 
S    0.76959581   0.35734756  -3.94132812 
C    2.40598334   0.01457743  -3.63904836 
H    2.05471400   1.36774661  -0.47127899 
H    3.68687045  -0.40928233  -2.02498515 
H    3.10198300   0.01760545  -4.48341735 
H   -0.80062033  -3.52742316   0.82300298 
H   -0.55544548  -2.11721189   3.09765585 
H    1.95080956  -1.18057404   3.20674919 
O    2.09172053   2.20901765   0.12828332 
O    0.48673444   1.16282114   1.28282294 
C    1.17272421   2.15302547   1.02909618 
C    1.00640885   3.42468936   1.75744837 
H    0.90672064   4.28153995   1.08586181 
H    1.85295107   3.66310353   2.40727721 
H    0.12684938   3.43503728   2.40357434 
H    3.23800726  -1.90029717   0.97326721 
H    1.47678905  -3.35267803  -0.52931483 
*
