! EnGrad PBEh-3c
%output 
xyzfile=True 
end 
%scf 
maxiter 250 
end
%output
Print[P_Hirshfeld] = 1
end
% maxcore
4000
*xyz 1 1
Ir   0.64666816  -0.78736662   0.45394272 
C    0.05012605  -2.91759693   1.12282961 
C    0.18902063  -2.16535004   2.30542291 
C    2.21153163  -2.11391483   1.18443517 
C    1.25737524  -2.83642298   0.37736195 
C    1.54011424  -1.69263420   2.34340218 
N   -1.10772169  -0.16118538  -0.54881227 
C   -2.47659993  -0.15335021   0.02543030 
C   -2.78370141   1.11771884   0.82684292 
H   -3.81794441   1.07167493   1.18399823 
H   -2.69987912   2.01793787   0.21339456 
H   -2.13552977   1.22954801   1.69313788 
C   -3.56046662  -0.38163040  -1.03036222 
H   -2.50694917  -1.00021106   0.71454559 
H   -4.51372662  -0.53489479  -0.52157830 
H   -3.71078704   0.47138926  -1.69683799 
H   -3.36456082  -1.26694680  -1.63593324 
C   -0.92228523   0.20853999  -1.76622523 
C    0.39965503   0.15203489  -2.27649137 
H   -1.74354646   0.53235752  -2.39154272 
C    1.46846162  -0.19046333  -1.45975980 
C    2.65417028  -0.22172156  -2.29045792 
S    0.76921309   0.35540762  -3.92743696 
C    2.39882752   0.01260180  -3.62617644 
H    2.02752355   1.37524690  -0.41537079 
H    3.67920858  -0.40374842  -2.01567845 
H    3.08792931   0.01603857  -4.46447811 
H   -0.82530710  -3.49652510   0.83467767 
H   -0.53390400  -2.09810260   3.10618912 
H    1.97854302  -1.16534237   3.18225801 
O    2.08446983   2.21741152   0.12668396 
O    0.49825036   1.14706346   1.26687579 
C    1.16983944   2.17072508   1.04217417 
C    0.99494620   3.43438548   1.77691168 
H    0.91007566   4.26623760   1.08879505 
H    1.85080722   3.64855990   2.40798905 
H    0.13308550   3.41615939   2.39334898 
H    3.24600580  -1.91866229   0.94361083 
H    1.45095201  -3.35513400  -0.54339962 
*
