! EnGrad PBEh-3c
%output 
xyzfile=True 
end 
%scf 
maxiter 250 
end
%output
Print[P_Hirshfeld] = 1
end
% maxcore
4000
*xyz 1 1
Ir   0.64976362  -0.80108579   0.45749677 
C    0.04586244  -2.90994306   1.12891181 
C    0.20755650  -2.16351203   2.31010713 
C    2.22004415  -2.12684630   1.16642613 
C    1.24880381  -2.84981536   0.37272587 
C    1.56439393  -1.69217424   2.32891132 
N   -1.10534265  -0.16650679  -0.54951558 
C   -2.47082630  -0.15173461   0.02568718 
C   -2.78155093   1.12715004   0.81267852 
H   -3.81747594   1.08172944   1.16450442 
H   -2.70191751   2.02405063   0.19426120 
H   -2.13946891   1.25694280   1.68058555 
C   -3.55305338  -0.39068183  -1.02982693 
H   -2.49905359  -0.98983096   0.71938306 
H   -4.50783112  -0.54229980  -0.52236803 
H   -3.70659730   0.45539242  -1.70353317 
H   -3.35556399  -1.27791051  -1.63125637 
C   -0.92878541   0.20513603  -1.76498807 
C    0.39140903   0.15166250  -2.27373932 
H   -1.74711847   0.53852804  -2.39443904 
C    1.45825378  -0.19828462  -1.45715045 
C    2.64797737  -0.22598881  -2.28092881 
S    0.76815780   0.35367956  -3.92020979 
C    2.39113458   0.01280799  -3.61145586 
H    2.00730197   1.38669442  -0.36395021 
H    3.67387008  -0.39941912  -2.00161347 
H    3.07642061   0.01400889  -4.44543222 
H   -0.84751531  -3.46290740   0.84869294 
H   -0.51015042  -2.07702217   3.11478567 
H    2.00790512  -1.15021603   3.15408553 
O    2.07262894   2.21797298   0.12544326 
O    0.51030540   1.14747659   1.25778585 
C    1.16837199   2.17223794   1.04681305 
C    0.99047277   3.44375952   1.79206607 
H    0.91263191   4.25505595   1.08965331 
H    1.85206430   3.63474124   2.41257913 
H    0.12290196   3.39855788   2.39643454 
H    3.25200552  -1.94026769   0.91294273 
H    1.42451806  -3.36012391  -0.55801878 
*
