! EnGrad PBEh-3c
%output 
xyzfile=True 
end 
%scf 
maxiter 250 
end
%output
Print[P_Hirshfeld] = 1
end
% maxcore
4000
*xyz 1 1
Ir   0.64930927  -0.82298063   0.46528371 
C    0.03680233  -2.89210817   1.13626641 
C    0.24441925  -2.15557396   2.32110050 
C    2.23035410  -2.15003798   1.12614965 
C    1.23610401  -2.87022009   0.36292844 
C    1.59911473  -1.69411686   2.30317969 
N   -1.10553909  -0.17734286  -0.54306961 
C   -2.46278981  -0.14477092   0.02352452 
C   -2.77892522   1.14425550   0.78700498 
H   -3.81435220   1.09965633   1.13092140 
H   -2.70499255   2.03244935   0.15712827 
H   -2.14655207   1.30308094   1.65754008 
C   -3.54217050  -0.40721349  -1.02663869 
H   -2.48648797  -0.97214894   0.73075309 
H   -4.49648532  -0.55618938  -0.52389730 
H   -3.69798573   0.42703428  -1.71391518 
H   -3.33901416  -1.29812605  -1.62133210 
C   -0.93634055   0.20170984  -1.76396643 
C    0.38063499   0.15052797  -2.26735138 
H   -1.75021479   0.54685955  -2.39501582 
C    1.44106759  -0.21344849  -1.45198262 
C    2.63358953  -0.23454653  -2.26185136 
S    0.76211943   0.35182290  -3.91639441 
C    2.37921358   0.01557200  -3.58808118 
H    1.98458295   1.37827382  -0.30756589 
H    3.66445464  -0.39355415  -1.97246816 
H    3.06351383   0.01016359  -4.41578912 
H   -0.88270902  -3.40431336   0.87566276 
H   -0.46543280  -2.03893780   3.12944014 
H    2.06146698  -1.12510454   3.10238726 
O    2.06462924   2.23887863   0.12736537 
O    0.51233094   1.13965106   1.25970806 
C    1.16424918   2.19421663   1.06400333 
C    0.98523721   3.43682227   1.80723549 
H    0.91469683   4.24786376   1.08766150 
H    1.86048707   3.61529106   2.42957884 
H    0.09143097   3.37330851   2.41519550 
H    3.26208001  -1.98098673   0.85754031 
H    1.37802506  -3.37251175  -0.58191524 
*
