! EnGrad PBEh-3c
%output 
xyzfile=True 
end 
%scf 
maxiter 250 
end
%output
Print[P_Hirshfeld] = 1
end
% maxcore
4000
*xyz 0 1
Pd   0.20307859   0.14800189   0.00860979 
O    1.72970148   1.30360232   0.80771859 
C    1.68777612   2.48680590   0.56236278 
O    0.43768406   2.99345774   0.10323222 
C    2.93173817   3.42236645   0.72667811 
H    2.77548056   4.38304874   1.22229666 
H    3.44253557   3.58168163  -0.22577522 
H    3.59705610   2.83804658   1.32439850 
N   -1.23474623  -1.06194625  -0.86799530 
C   -0.77307405  -2.45936045  -1.02264291 
H    0.09249164  -2.45688727  -1.67080815 
H   -1.58060560  -3.05911942  -1.46025719 
H   -0.51723089  -2.87574768  -0.05434002 
C   -1.66637010  -0.57864711  -2.18400713 
H   -1.88688915   0.48180806  -2.15266225 
H   -2.56956058  -1.11432314  -2.48356591 
H   -0.88058450  -0.73781188  -2.90648228 
C   -1.91164783  -1.05139220   1.46470467 
C   -2.65684715  -1.63662280   2.48116746 
C   -2.24440481  -1.52998616   3.78840143 
C   -1.09311505  -0.81527212   4.06610785 
C   -0.32078580  -0.24206515   3.04643763 
C   -0.69122899  -0.36414402   1.67924334 
H   -0.78046612  -0.71608495   5.08792358 
H    0.56729800   0.34124516   3.31514341 
H   -3.53864092  -2.19000659   2.22324445 
H   -2.81307053  -1.99992292   4.57180191 
H    0.54836911   3.86261731   0.34987791 
C   -2.39998944  -1.03402955   0.06127518 
H   -2.93010510  -0.10110285  -0.13259619 
H   -3.08602101  -1.85780464  -0.17108084 
O    1.21087824   0.71046149  -1.80109849 
C    1.95731191  -0.09049657  -2.48172424 
O    2.00176559  -1.30890172  -2.37589862 
C    2.89747531   0.56428581  -3.52438141 
H    3.26361902  -0.18210105  -4.22723186 
H    3.77477806   0.99339504  -3.03911033 
H    2.42887327   1.37109951  -4.08564080 
*
