! EnGrad PBEh-3c
%output 
xyzfile=True 
end 
%scf 
maxiter 250 
end
%output
Print[P_Hirshfeld] = 1
end
% maxcore
4000
*xyz 0 1
Pd   0.21973442   0.13607297   0.00953235 
O    1.70591402   1.35422466   0.78064735 
C    1.72925941   2.54047654   0.56916242 
O    0.50099814   2.97190979   0.13949181 
C    2.98598609   3.37796506   0.74527727 
H    2.80617731   4.32400221   1.23370090 
H    3.46257141   3.54204433  -0.21782206 
H    3.67255139   2.79837207   1.33684056 
N   -1.23149415  -1.08307281  -0.86565162 
C   -0.76191746  -2.48073071  -0.99235554 
H    0.11525575  -2.49202410  -1.62843429 
H   -1.55781038  -3.09480475  -1.43619414 
H   -0.51665183  -2.87848478  -0.01423265 
C   -1.65360439  -0.62717661  -2.19671277 
H   -1.88212354   0.43560170  -2.18821536 
H   -2.55240773  -1.17251331  -2.50521094 
H   -0.86306565  -0.79732957  -2.91713941 
C   -1.93733942  -1.03908027   1.46566613 
C   -2.68719463  -1.60660425   2.48781331 
C   -2.27218773  -1.49991098   3.79893490 
C   -1.10485709  -0.81122785   4.07574064 
C   -0.32319187  -0.26730292   3.06094808 
C   -0.70068745  -0.37914512   1.69065691 
H   -0.78916599  -0.71868124   5.09262720 
H    0.58898464   0.25773326   3.32833195 
H   -3.57790724  -2.14554985   2.24571278 
H   -2.85274635  -1.96138964   4.59205794 
H    0.54213068   3.88793657   0.21694770 
C   -2.40222800  -1.03167180   0.05494847 
H   -2.92807888  -0.09984391  -0.15473682 
H   -3.09365271  -1.85522773  -0.17071440 
O    1.20273211   0.74005425  -1.79758974 
C    1.93887135  -0.04772512  -2.49941979 
O    1.97798437  -1.26631066  -2.40524217 
C    2.86641677   0.62157651  -3.53884597 
H    3.23909474  -0.10934291  -4.25483722 
H    3.73482462   1.05479794  -3.04198816 
H    2.38186000   1.43119115  -4.08304462 
*
