! EnGrad PBEh-3c
%output 
xyzfile=True 
end 
%scf 
maxiter 250 
end
%output
Print[P_Hirshfeld] = 1
end
% maxcore
4000
*xyz 0 1
Pd   0.22350165   0.13249325   0.00583071 
O    1.70875162   1.36022364   0.77944292 
C    1.72386882   2.54586777   0.56594222 
O    0.52546336   2.97295536   0.14675144 
C    2.98458377   3.36881928   0.74568954 
H    2.80868762   4.31774547   1.23504043 
H    3.46361364   3.53772384  -0.21792880 
H    3.68503954   2.79253755   1.34069543 
N   -1.23324735  -1.08610019  -0.86321001 
C   -0.76184416  -2.48161374  -0.98920307 
H    0.11878582  -2.49668684  -1.62409738 
H   -1.55502374  -3.09857780  -1.43376872 
H   -0.51631909  -2.87919603  -0.00955910 
C   -1.65245555  -0.63179540  -2.19774108 
H   -1.88192700   0.43105863  -2.19187796 
H   -2.55071491  -1.17922337  -2.50827936 
H   -0.86084443  -0.80433077  -2.91937126 
C   -1.93637869  -1.03556644   1.46615893 
C   -2.68762276  -1.60202975   2.48627587 
C   -2.27509131  -1.49703027   3.80102901 
C   -1.10534298  -0.81008755   4.07427240 
C   -0.32388878  -0.26922308   3.05586795 
C   -0.70697885  -0.38329328   1.70089886 
H   -0.78929230  -0.71848319   5.09604584 
H    0.58991892   0.24712227   3.33060769 
H   -3.58486922  -2.14247802   2.24818825 
H   -2.85690131  -1.95774691   4.59512010 
H    0.53575082   3.89538090   0.20082850 
C   -2.40137305  -1.03215244   0.05249527 
H   -2.92860998  -0.09914218  -0.15713744 
H   -3.09461373  -1.85483440  -0.17081761 
O    1.20272423   0.74304007  -1.79768247 
C    1.93751921  -0.04276012  -2.50219817 
O    1.97464174  -1.26101328  -2.40777394 
C    2.86140624   0.62785261  -3.53902274 
H    3.23637294  -0.10147698  -4.25778753 
H    3.73060769   1.06188742  -3.04142404 
H    2.37627598   1.43808733  -4.08261930 
*
