! EnGrad PBEh-3c
%output 
xyzfile=True 
end 
%scf 
maxiter 250 
end
%output
Print[P_Hirshfeld] = 1
end
% maxcore
4000
*xyz 0 1
Pd   0.21126114   0.14477437   0.01076163 
O    1.70454125   1.34761240   0.78606214 
C    1.69912798   2.53230286   0.56201934 
O    0.48014860   2.93640834   0.12943060 
C    2.96574977   3.39920962   0.73715497 
H    2.79358471   4.34909280   1.22926537 
H    3.45670865   3.55905978  -0.22089698 
H    3.64055952   2.81530699   1.33168557 
N   -1.23232853  -1.07436953  -0.86529816 
C   -0.76681342  -2.47182825  -1.00540027 
H    0.10568841  -2.47635876  -1.64710590 
H   -1.56802506  -3.08005442  -1.44627935 
H   -0.51703121  -2.87685385  -0.03079095 
C   -1.65871358  -0.60681031  -2.19075919 
H   -1.88375201   0.45486963  -2.17373445 
H   -2.56029624  -1.14779225  -2.49530394 
H   -0.86986521  -0.77139818  -2.91254703 
C   -1.92534890  -1.04372460   1.46508106 
C   -2.67338868  -1.61805688   2.48566914 
C   -2.26127241  -1.51249584   3.79470908 
C   -1.09995205  -0.81298032   4.07077710 
C   -0.32163173  -0.25699695   3.05289026 
C   -0.69668144  -0.37454084   1.68869261 
H   -0.78668261  -0.71846119   5.08854479 
H    0.58140822   0.29516248   3.32261377 
H   -3.55998961  -2.16341023   2.23605053 
H   -2.83737889  -1.97780575   4.58359793 
H    0.55346705   3.88691393   0.27894567 
C   -2.40151326  -1.03325136   0.05705674 
H   -2.92840895  -0.10026587  -0.14541516 
H   -3.09041979  -1.85659491  -0.17089003 
O    1.20496067   0.72608530  -1.79770257 
C    1.94683728  -0.06557895  -2.49170107 
O    1.98872835  -1.28401113  -2.39333632 
C    2.87995855   0.59670695  -3.53328591 
H    3.25031732  -0.14113052  -4.24441155 
H    3.75244146   1.02846066  -3.04179283 
H    2.40257486   1.40528113  -4.08454913 
*
