! EnGrad PBEh-3c
%output 
xyzfile=True 
end 
%scf 
maxiter 250 
end
%output
Print[P_Hirshfeld] = 1
end
% maxcore
4000
*xyz 0 1
Pd   0.25312779   0.08103457  -0.00898819 
O    1.80861807   1.27030639   0.80903817 
C    1.80752852   2.47301784   0.59832501 
O    0.62349307   3.15001930   0.15889911 
C    3.05102691   3.28871001   0.77624322 
H    2.84893438   4.24501233   1.25055173 
H    3.46905597   3.48329459  -0.21117728 
H    3.78409655   2.74058678   1.35213052 
N   -1.23059125  -1.11181881  -0.87227410 
C   -0.74657202  -2.51009260  -0.94876231 
H    0.14784562  -2.55215810  -1.55897510 
H   -1.51724585  -3.14253388  -1.40126305 
H   -0.51392885  -2.88849862   0.04141373 
C   -1.63956872  -0.69256546  -2.22432920 
H   -1.87855615   0.36801913  -2.23432326 
H   -2.51973807  -1.25849698  -2.54394046 
H   -0.84501334  -0.89292059  -2.93285513 
C   -1.96521861  -1.01697593   1.47261647 
C   -2.73440603  -1.57188334   2.49772277 
C   -2.31311121  -1.46372507   3.81528539 
C   -1.12812843  -0.80881724   4.10163193 
C   -0.34198738  -0.30287040   3.06560357 
C   -0.71999412  -0.38519238   1.69839290 
H   -0.78776027  -0.71350641   5.13105248 
H    0.61067119   0.11830299   3.35541790 
H   -3.65749301  -2.09587540   2.27967985 
H   -2.89111885  -1.90060773   4.61491265 
H    0.42869322   4.06335543  -0.04096690 
C   -2.40727714  -1.02781021   0.04605386 
H   -2.93106668  -0.09756376  -0.18723026 
H   -3.10329527  -1.84616357  -0.16972105 
O    1.20366217   0.80182736  -1.80661219 
C    1.91159553   0.01117884  -2.52993641 
O    1.93704504  -1.20922168  -2.44294816 
C    2.81376298   0.71338358  -3.55264791 
H    3.19539940   0.00685183  -4.28309042 
H    3.67068437   1.14882708  -3.03586662 
H    2.30578060   1.52399604  -4.07600300 
*
