! EnGrad PBEh-3c
%output 
xyzfile=True 
end 
%scf 
maxiter 250 
end
%output
Print[P_Hirshfeld] = 1
end
% maxcore
4000
*xyz 0 1
Pd   0.25218728   0.08695584  -0.01174546 
O    1.79052433   1.30311279   0.79863466 
C    1.76779655   2.50506019   0.58164783 
O    0.65734079   3.07067328   0.17876069 
C    3.04154821   3.29262662   0.77186038 
H    2.84403721   4.24957184   1.24919568 
H    3.47033750   3.48774116  -0.21205230 
H    3.78345164   2.74307914   1.35567138 
N   -1.23299415  -1.11113035  -0.86641307 
C   -0.74980098  -2.50573934  -0.95288061 
H    0.14699528  -2.54782197  -1.56639076 
H   -1.52088825  -3.13922578  -1.40450428 
H   -0.51379489  -2.88745986   0.03785443 
C   -1.64073619  -0.68659068  -2.22069953 
H   -1.87883467   0.37387031  -2.23133404 
H   -2.52390734  -1.25212995  -2.54121107 
H   -0.84521863  -0.88515712  -2.93374123 
C   -1.95611937  -1.01411405   1.47116524 
C   -2.72548589  -1.57140732   2.49577171 
C   -2.31097263  -1.46679057   3.81466599 
C   -1.12469994  -0.80766215   4.09649863 
C   -0.34082053  -0.29886228   3.05213486 
C   -0.72702468  -0.39104351   1.71783839 
H   -0.78900608  -0.71471760   5.12860741 
H    0.60870908   0.12936704   3.35541355 
H   -3.65273304  -2.10093776   2.27731561 
H   -2.89053120  -1.90704240   4.61564019 
H    0.43172824   4.06943460  -0.02136175 
C   -2.40569581  -1.02987330   0.04351210 
H   -2.93119340  -0.09677479  -0.18456419 
H   -3.10259231  -1.84701621  -0.16977466 
O    1.20357180   0.79441866  -1.80478607 
C    1.91564363   0.00775471  -2.52913208 
O    1.94025327  -1.21182769  -2.43941868 
C    2.81643370   0.70506731  -3.55076733 
H    3.20045265  -0.00419110  -4.28318960 
H    3.67725334   1.14122149  -3.03673319 
H    2.31274090   1.51628851  -4.07735672 
*
