! EnGrad PBEh-3c
%output 
xyzfile=True 
end 
%scf 
maxiter 250 
end
%output
Print[P_Hirshfeld] = 1
end
% maxcore
4000
*xyz 0 1
Pd   0.24159257   0.11810519  -0.00413743 
O    1.70066446   1.40553696   0.76346987 
C    1.73818098   2.58209780   0.56242309 
O    0.60984515   2.99311395   0.17860761 
C    2.99404385   3.32374463   0.75231967 
H    2.82794076   4.27664010   1.24327902 
H    3.47401361   3.50985211  -0.21565420 
H    3.75055987   2.75907094   1.35739605 
N   -1.23830982  -1.10350084  -0.85434068 
C   -0.75717774  -2.49204806  -0.96741983 
H    0.13857226  -2.52353082  -1.59475417 
H   -1.53834158  -3.12371424  -1.41706979 
H   -0.51534373  -2.88223060   0.02017413 
C   -1.64355428  -0.66492422  -2.20452498 
H   -1.87950771   0.40033613  -2.21648077 
H   -2.53925910  -1.22178019  -2.52543931 
H   -0.84643559  -0.84760254  -2.92997703 
C   -1.94568849  -1.02198096   1.46779026 
C   -2.70018318  -1.57618226   2.48124358 
C   -2.29271178  -1.47557258   3.81124210 
C   -1.10944657  -0.80415434   4.07008672 
C   -0.32398832  -0.28438255   3.05019451 
C   -0.72948370  -0.40309422   1.73452197 
H   -0.79307840  -0.71878477   5.10595113 
H    0.60039902   0.18355766   3.33981886 
H   -3.61966292  -2.11512568   2.26358818 
H   -2.88579220  -1.93246106   4.61277657 
H    0.52675477   3.89494586   0.10737814 
C   -2.39839371  -1.03223378   0.04279915 
H   -2.92933375  -0.09663282  -0.17282014 
H   -3.10093700  -1.85341135  -0.17148675 
O    1.19864280   0.76156555  -1.79561696 
C    1.92577018  -0.01144038  -2.51634808 
O    1.95507981  -1.22851990  -2.42682201 
C    2.83418205   0.66820973  -3.54448580 
H    3.21841823  -0.05010505  -4.27686670 
H    3.70230543   1.10681793  -3.04059626 
H    2.34085748   1.48186871  -4.07960282 
*
