! EnGrad PBEh-3c
%output 
xyzfile=True 
end 
%scf 
maxiter 250 
end
%output
Print[P_Hirshfeld] = 1
end
% maxcore
4000
*xyz 1 1
Ir   0.53639608  -0.79619056   0.52731246 
C    0.10482153  -2.89873696   0.93509150 
C    0.03768781  -2.21624008   2.20618987 
C    2.16177742  -1.94567671   1.31967832 
C    1.42164289  -2.76269149   0.41973612 
C    1.30082605  -1.66912283   2.43904583 
N   -1.13078275  -0.16652871  -0.53357104 
C   -2.49483881  -0.18994887   0.01532915 
C   -2.74583334   0.96922409   0.96683561 
H   -3.74916385   0.92493783   1.38884369 
H   -2.65463296   1.91224514   0.43006513 
H   -2.05365393   0.94957520   1.80470675 
C   -3.61871758  -0.28904589  -1.00516992 
H   -2.55851932  -1.09713833   0.62078535 
H   -4.56835895  -0.46010658  -0.50064988 
H   -3.73329526   0.63091947  -1.58068371 
H   -3.46904714  -1.12293782  -1.69195685 
C   -0.92652917   0.19523615  -1.74738464 
C    0.38252118   0.18381050  -2.30633448 
H   -1.74322049   0.49870933  -2.39366921 
C    1.45222691  -0.22316204  -1.55071737 
C    2.64413482  -0.27156259  -2.31089322 
S    0.81284614   0.38256451  -3.94988789 
C    2.44325440   0.05908531  -3.62427088 
H    2.25034086   1.32613021  -0.82424443 
H    3.63618930  -0.51320256  -1.95534473 
H    3.16947074   0.04171762  -4.42277009 
H   -0.60921103  -3.63193333   0.58870595 
H   -0.78240647  -2.23979147   2.90662882 
H    1.60134065  -1.17378261   3.34998633 
O    2.12569820   2.18977545   0.08592374 
O    0.50831631   1.22461734   1.22246852 
C    1.18741438   2.21770872   0.96118040 
C    1.03265034   3.49591983   1.70113047 
H    0.92123019   4.32186607   0.99925944 
H    1.92013970   3.71262857   2.29721020 
H    0.17415227   3.47196142   2.36482247 
H    3.21808905  -1.73342278   1.28111836 
H    1.79503424  -3.30738095  -0.43450355 
*
