! EnGrad PBEh-3c
%output 
xyzfile=True 
end 
%scf 
maxiter 250 
end
%output
Print[P_Hirshfeld] = 1
end
% maxcore
4000
*xyz 1 1
Ir   0.57781539  -0.78240439   0.47888550 
C    0.10929894  -2.90195748   0.96039715 
C    0.03049207  -2.22465412   2.19829668 
C    2.16441638  -1.95223387   1.34137814 
C    1.39975685  -2.77307423   0.41994713 
C    1.33928396  -1.67019543   2.42612327 
N   -1.13599835  -0.16822542  -0.54098876 
C   -2.51164302  -0.19866925   0.03078743 
C   -2.74185530   0.98132904   0.95956052 
H   -3.75426189   0.92997339   1.37578351 
H   -2.65635400   1.92124870   0.42158244 
H   -2.05724063   0.96694911   1.79892211 
C   -3.60982688  -0.29185620  -1.01607237 
H   -2.55100913  -1.09345352   0.62346568 
H   -4.56393105  -0.46362225  -0.49903302 
H   -3.73409663   0.62208147  -1.58823335 
H   -3.46389156  -1.12943885  -1.69035717 
C   -0.93569127   0.20286001  -1.75974303 
C    0.39172501   0.17192293  -2.30686311 
H   -1.74600156   0.49951266  -2.38886525 
C    1.43606330  -0.22275777  -1.47571603 
C    2.65858661  -0.26695891  -2.30488448 
S    0.80503843   0.39157069  -3.96496507 
C    2.43260373   0.05182559  -3.63475579 
H    2.21038396   1.39036422  -0.71666967 
H    3.63771923  -0.50997079  -1.95631178 
H    3.16710877   0.04298209  -4.42887610 
H   -0.62484912  -3.61826533   0.59468809 
H   -0.77206680  -2.23117626   2.91716893 
H    1.62085012  -1.16782455   3.34024195 
O    2.15651800   2.14830016  -0.00153563 
O    0.47804235   1.20350946   1.24252419 
C    1.21461663   2.17880034   0.93936848 
C    1.02522740   3.50553505   1.71052132 
H    0.92013976   4.32047549   1.00482767 
H    1.91729002   3.70826847   2.30286759 
H    0.16868553   3.47068837   2.36937451 
H    3.21877356  -1.74017237   1.26236953 
H    1.77756539  -3.30306380  -0.44488906 
*
