! EnGrad PBEh-3c
%output 
xyzfile=True 
end 
%scf 
maxiter 250 
end
%output
Print[P_Hirshfeld] = 1
end
% maxcore
4000
*xyz 1 1
Ir   0.60748546  -0.78031015   0.44049701 
C    0.10321155  -2.91873645   0.97993913 
C    0.05972484  -2.20663054   2.21381145 
C    2.18263065  -1.98734436   1.32040547 
C    1.39815846  -2.77604617   0.41918605 
C    1.34393253  -1.67534807   2.42668010 
N   -1.13736063  -0.17240533  -0.55642933 
C   -2.50468816  -0.19171818   0.02654479 
C   -2.74897891   0.99552825   0.94887494 
H   -3.75838125   0.94260213   1.35318923 
H   -2.65851710   1.93651587   0.40368900 
H   -2.06115769   0.99875123   1.79124899 
C   -3.60977432  -0.30262891  -1.01484982 
H   -2.54198338  -1.09979577   0.63849892 
H   -4.55270115  -0.46932035  -0.50320900 
H   -3.73309700   0.60983358  -1.60299879 
H   -3.45284193  -1.14431997  -1.69093249 
C   -0.93238235   0.20219467  -1.76794201 
C    0.39151529   0.15549959  -2.28672758 
H   -1.76216072   0.50838198  -2.39418779 
C    1.43363816  -0.22530626  -1.46795515 
C    2.62943505  -0.26018537  -2.27820383 
S    0.79617362   0.39773535  -3.95563818 
C    2.42537549   0.03526337  -3.61387618 
H    2.15864008   1.43368603  -0.60413004 
H    3.64355580  -0.50365171  -1.95636337 
H    3.15595654   0.04343491  -4.42817032 
H   -0.65524521  -3.58951474   0.60485923 
H   -0.75143370  -2.21336215   2.92916682 
H    1.65679866  -1.15390802   3.32020183 
O    2.13148630   2.15769197   0.00583777 
O    0.50208516   1.20523613   1.22562496 
C    1.22612864   2.15507286   0.92155386 
C    1.04198402   3.46439431   1.68906209 
H    0.91907019   4.31825699   1.01004780 
H    1.91285034   3.70109066   2.31211611 
H    0.16582868   3.45783294   2.36695203 
H    3.22842697  -1.75542650   1.23241612 
H    1.74436047  -3.29651625  -0.45767177 
*
