! EnGrad PBEh-3c
%output 
xyzfile=True 
end 
%scf 
maxiter 250 
end
%output
Print[P_Hirshfeld] = 1
end
% maxcore
4000
*xyz 1 1
Ir   0.61430678  -0.78539460   0.43510296 
C    0.10099212  -2.92181323   0.98939092 
C    0.07377560  -2.19992908   2.22187289 
C    2.19211791  -2.00306684   1.30904666 
C    1.39415583  -2.78235849   0.41571667 
C    1.35762906  -1.67614298   2.42247173 
N   -1.13504040  -0.17496244  -0.56220346 
C   -2.49738292  -0.19078544   0.02440921 
C   -2.75031995   1.00492208   0.93977485 
H   -3.76259069   0.95180173   1.33894598 
H   -2.66056865   1.94495578   0.39104963 
H   -2.06509157   1.02011106   1.78499004 
C   -3.60591498  -0.30937018  -1.01631168 
H   -2.53635982  -1.09745849   0.64530448 
H   -4.54902399  -0.47425195  -0.50473219 
H   -3.73189829   0.59959371  -1.61143723 
H   -3.44571651  -1.15354327  -1.68965644 
C   -0.93654613   0.20052530  -1.77085676 
C    0.38524483   0.15196920  -2.28514757 
H   -1.76775686   0.51389914  -2.39765449 
C    1.43265245  -0.22915752  -1.47205631 
C    2.62369373  -0.25998489  -2.26794248 
S    0.79397249   0.39738542  -3.94137639 
C    2.42029864   0.02846190  -3.60067766 
H    2.13455574   1.41621438  -0.57700140 
H    3.64024544  -0.49767060  -1.95547028 
H    3.14538936   0.04226761  -4.42071430 
H   -0.67498926  -3.57073389   0.61385309 
H   -0.73641722  -2.19973094   2.93762523 
H    1.68107503  -1.14525443   3.30601239 
O    2.12446338   2.20196082   0.03578481 
O    0.51931677   1.19659729   1.20896349 
C    1.21298023   2.16388441   0.93850286 
C    1.04499530   3.44887059   1.68482863 
H    0.92038576   4.30985689   1.01481293 
H    1.90867700   3.69312169   2.31494286 
H    0.17242289   3.44542532   2.35738306 
H    3.23554046  -1.76840438   1.21215615 
H    1.72324740  -3.29580168  -0.46787494 
*
