! EnGrad PBEh-3c
%output 
xyzfile=True 
end 
%scf 
maxiter 250 
end
%output
Print[P_Hirshfeld] = 1
end
% maxcore
4000
*xyz 1 1
Ir   0.62550261  -0.79068380   0.42656506 
C    0.09964813  -2.92228647   1.00234932 
C    0.08601272  -2.19638493   2.22737025 
C    2.20097289  -2.01792961   1.30159185 
C    1.38452376  -2.79194751   0.41225239 
C    1.38241269  -1.67659968   2.41360046 
N   -1.13329171  -0.17872793  -0.56582192 
C   -2.49315829  -0.19161594   0.02528411 
C   -2.75023060   1.01644376   0.92817355 
H   -3.76752884   0.96257014   1.32153220 
H   -2.66318802   1.95470696   0.37565858 
H   -2.07019433   1.04570860   1.77696575 
C   -3.59941023  -0.31711591  -1.01968086 
H   -2.52904749  -1.09208953   0.65178590 
H   -4.54483607  -0.48044173  -0.50594881 
H   -3.73043661   0.58656185  -1.62109346 
H   -3.43739132  -1.16434895  -1.68756954 
C   -0.94388485   0.20033277  -1.77656584 
C    0.37997975   0.14784026  -2.28536208 
H   -1.77251983   0.51955989  -2.40011873 
C    1.42649418  -0.23310173  -1.46260159 
C    2.62339367  -0.26055898  -2.25930046 
S    0.79137505   0.39757437  -3.92969179 
C    2.41321402   0.02239357  -3.59123165 
H    2.10598272   1.42161609  -0.52376490 
H    3.63649749  -0.49099432  -1.95276948 
H    3.13305027   0.04072450  -4.41130414 
H   -0.69802129  -3.54816821   0.62521592 
H   -0.71856965  -2.18302161   2.94891358 
H    1.71045411  -1.13493830   3.28902767 
O    2.12564669   2.22261942   0.03530172 
O    0.52620065   1.17748560   1.19766621 
C    1.20716519   2.17436282   0.95362437 
C    1.04132770   3.44392450   1.69101000 
H    0.92224579   4.29854230   1.02038258 
H    1.90390401   3.68233528   2.31780237 
H    0.17834246   3.43160957   2.34823581 
H    3.24373911  -1.78436731   1.18718801 
H    1.69870383  -3.29627244  -0.48201325 
*
