! EnGrad PBEh-3c
%output 
xyzfile=True 
end 
%scf 
maxiter 250 
end
%output
Print[P_Hirshfeld] = 1
end
% maxcore
4000
*xyz 1 1
Ir   0.62808877  -0.80205807   0.43098920 
C    0.09803074  -2.91657631   1.01201483 
C    0.09926315  -2.19399833   2.23320417 
C    2.20758151  -2.03040596   1.29080595 
C    1.37505236  -2.80377386   0.40736071 
C    1.40986323  -1.67660557   2.40147595 
N   -1.13097276  -0.18366080  -0.56549593 
C   -2.48776141  -0.19179153   0.02555970 
C   -2.74971199   1.02744369   0.91492786 
H   -3.77114706   0.97433871   1.30299298 
H   -2.66606755   1.96314073   0.35810542 
H   -2.07593419   1.07252532   1.76777030 
C   -3.59249651  -0.32577221  -1.02179438 
H   -2.52159244  -1.08293838   0.65704518 
H   -4.54065740  -0.48767341  -0.50758562 
H   -3.72797013   0.57162310  -1.62998310 
H   -3.42866233  -1.17580297  -1.68468102 
C   -0.95155499   0.19867661  -1.77980545 
C    0.37286546   0.14633302  -2.28541598 
H   -1.77568246   0.52544020  -2.40276134 
C    1.41888981  -0.23758892  -1.46131050 
C    2.62342475  -0.26456187  -2.25225419 
S    0.79037694   0.39607210  -3.91931997 
C    2.40609818   0.02047210  -3.58325464 
H    2.08517539   1.41327810  -0.48879443 
H    3.63165933  -0.48470943  -1.94560701 
H    3.11956979   0.03809321  -4.39674290 
H   -0.72147179  -3.52336100   0.63824602 
H   -0.69843152  -2.16349417   2.96039674 
H    1.74205964  -1.12329424   3.26993597 
O    2.11674962   2.24951269   0.05253215 
O    0.53595868   1.16664781   1.18724911 
C    1.20630156   2.18253331   0.96096957 
C    1.03321673   3.45072597   1.70714269 
H    0.92502730   4.28482718   1.02435461 
H    1.90084007   3.66899529   2.32044437 
H    0.17933586   3.41605889   2.34288460 
H    3.25405671  -1.80356369   1.16050771 
H    1.67410510  -3.30006242  -0.49839437 
*
