! EnGrad PBEh-3c
%output 
xyzfile=True 
end 
%scf 
maxiter 250 
end
%output
Print[P_Hirshfeld] = 1
end
% maxcore
4000
*xyz 1 1
Ir   0.62789663  -0.81379928   0.43804702 
C    0.09281683  -2.90987546   1.01879936 
C    0.11596414  -2.19004085   2.23989205 
C    2.21668286  -2.04295485   1.27489801 
C    1.36667807  -2.81605516   0.40141697 
C    1.43425571  -1.67613999   2.39063304 
N   -1.12944846  -0.18882280  -0.56528654 
C   -2.48366254  -0.18995798   0.02553174 
C   -2.74947827   1.03826706   0.90126571 
H   -3.77317838   0.98642381   1.28363427 
H   -2.66888523   1.97050369   0.33871420 
H   -2.08178066   1.09955961   1.75767072 
C   -3.58610447  -0.33529591  -1.02268149 
H   -2.51432637  -1.07286153   0.66264021 
H   -4.53563033  -0.49555360  -0.50963674 
H   -3.72475518   0.55586489  -1.63825550 
H   -3.41966152  -1.18781893  -1.68123203 
C   -0.95757139   0.19576036  -1.77852153 
C    0.36601432   0.14526998  -2.28405855 
H   -1.77841772   0.53106067  -2.40467810 
C    1.41157943  -0.24238466  -1.45835359 
C    2.61875881  -0.26920902  -2.24717386 
S    0.78851516   0.39496044  -3.91454666 
C    2.39854800   0.02036914  -3.57337518 
H    2.07087897   1.41574519  -0.45357886 
H    3.62845420  -0.47988432  -1.93435775 
H    3.10898671   0.03520598  -4.38290318 
H   -0.74339406  -3.49630803   0.65253972 
H   -0.67703509  -2.14245122   2.97214747 
H    1.77502514  -1.11127922   3.24844494 
O    2.11113754   2.25728830   0.05470383 
O    0.54410668   1.16288922   1.18150518 
C    1.20177829   2.18964280   0.97226851 
C    1.02727789   3.45504110   1.72141942 
H    0.92701629   4.27477478   1.02608619 
H    1.90113708   3.65616806   2.32638206 
H    0.16877788   3.40153310   2.34746991 
H    3.26336230  -1.82497205   1.13281123 
H    1.64943030  -3.30573547  -0.51523370 
*
