! EnGrad PBEh-3c
%output 
xyzfile=True 
end 
%scf 
maxiter 250 
end
%output
Print[P_Hirshfeld] = 1
end
% maxcore
4000
*xyz -1 1
C   -2.46872244  -0.19014933   0.76831312 
C   -1.94479068   0.95281893   1.39262803 
C   -3.80308830  -0.51531660   0.93048997 
C   -4.68362601   0.42347616   1.42432740 
C   -4.22470918   1.60629824   1.97429084 
C   -2.86620020   1.79945163   2.07367940 
H   -2.50716550  -1.24308584  -1.15625597 
H   -4.13396477  -1.52382906   0.78116886 
H   -2.51167240   2.71995121   2.52254723 
H   -5.74587400   0.26656093   1.29660677 
H   -4.90699105   2.33718967   2.36171224 
C   -0.53265002   1.47072680   1.27456247 
C    0.62301580   0.50135925   1.68003617 
H   -0.40040818   2.38806714   1.84316492 
H   -0.48337244   1.78516609   0.23496183 
C    1.78540461   0.58847323   0.75467568 
H    0.24266786  -0.51240755   1.73411433 
H    0.92723922   0.76071953   2.69152110 
C    1.76948027  -0.07322311  -0.48932910 
C    2.83211120   0.13155775  -1.36553916 
C    3.80407631   1.09673896  -1.09552793 
C    2.84155093   1.43660061   1.06281023 
C    3.81950504   1.74334254   0.12661611 
H    2.91426325  -0.45402247  -2.27387344 
H    4.56853946   1.30861711  -1.83343162 
H    2.93252097   1.81346449   2.07603997 
H    4.50787560   2.55684361   0.31571175 
Pd   0.26759618  -1.44347811  -0.99507605 
Br  -1.41265026  -3.73120662  -1.02473601 
P    1.36120555  -2.99981713   0.19573536 
H    0.72302003  -3.50734873   1.32574438 
C    0.45847768  -1.32862021  -3.98211466 
O    1.62622751  -1.63313767  -4.19551386 
O   -0.41183201  -1.75551426  -3.10555347 
O    0.00826569  -0.08054821  -4.51444815 
H    2.62804112  -2.77144597   0.74292933 
H    1.66434654  -4.18754263  -0.48435873 
H    0.73080294   0.26515637  -5.06594520 
*
