! EnGrad PBEh-3c
%output 
xyzfile=True 
end 
%scf 
maxiter 250 
end
%output
Print[P_Hirshfeld] = 1
end
% maxcore
4000
*xyz -1 1
C   -2.46083648  -0.18340528   0.73823703 
C   -1.96074969   0.98013975   1.37064867 
C   -3.80446977  -0.50449238   0.88103294 
C   -4.69071376   0.40566643   1.43201967 
C   -4.23599528   1.59983578   1.95955035 
C   -2.85726750   1.81319357   2.02154581 
H   -2.44161613  -1.23201333  -1.09330985 
H   -4.11970347  -1.52738893   0.71726369 
H   -2.50808299   2.73438685   2.49256277 
H   -5.73631561   0.25824717   1.26259237 
H   -4.91945710   2.34588707   2.33177911 
C   -0.51272521   1.45895428   1.31025285 
C    0.63118910   0.48986847   1.70561162 
H   -0.41842323   2.36819052   1.94066508 
H   -0.43167126   1.80242303   0.28533283 
C    1.79608521   0.56913446   0.76215656 
H    0.23814671  -0.52536291   1.74358373 
H    0.95445235   0.74719081   2.71398171 
C    1.75021886  -0.09455639  -0.48584510 
C    2.81215588   0.14021481  -1.36695952 
C    3.78594262   1.09854047  -1.10428002 
C    2.83224463   1.45994484   1.05958981 
C    3.81206590   1.75012721   0.12724525 
H    2.88154019  -0.44661824  -2.28317030 
H    4.54803499   1.31110086  -1.83879059 
H    2.93661101   1.82415044   2.07680737 
H    4.51986425   2.54352571   0.31907647 
Pd   0.23156119  -1.48222489  -1.00306201 
Br  -1.42070216  -3.69723193  -0.97456291 
P    1.36566092  -2.98897798   0.18086650 
H    0.75319254  -3.52235418   1.32302389 
C    0.46820674  -1.31978996  -3.99450843 
O    1.59401200  -1.62235874  -4.20144163 
O   -0.42075018  -1.77344193  -3.07004093 
O   -0.00884107  -0.10725010  -4.48859797 
H    2.65449205  -2.76595781   0.71319681 
H    1.65120875  -4.17811415  -0.51661622 
H    0.72879517   0.27194278  -5.04303607 
*
