! EnGrad PBEh-3c
%output 
xyzfile=True 
end 
%scf 
maxiter 250 
end
%output
Print[P_Hirshfeld] = 1
end
% maxcore
4000
*xyz -1 1
C   -2.76601418  -0.33159756   0.87367806 
C   -2.13680695   0.88646339   1.13208029 
C   -3.99783060  -0.62341017   1.44417958 
C   -4.63083760   0.30496356   2.25771233 
C   -3.99426727   1.49805802   2.55606885 
C   -2.73017134   1.74997654   2.04672739 
H   -2.41732806  -1.16415645  -0.02639255 
H   -4.49964882  -1.55398135   1.20952688 
H   -2.23464033   2.67826485   2.30875273 
H   -5.60576692   0.08369389   2.67372878 
H   -4.47800220   2.22077651   3.20143621 
C   -0.82091656   1.24012402   0.50380494 
C    0.34760674   0.55844098   1.22320314 
H   -0.65993830   2.32216420   0.50383968 
H   -0.84588186   0.95966169  -0.54945365 
C    1.64325694   0.62385434   0.46020284 
H    0.08478844  -0.48409408   1.42271412 
H    0.46109274   1.02156083   2.20894914 
C    1.90010357  -0.20414558  -0.64241026 
C    3.09809520  -0.03791491  -1.33411913 
C    4.02838325   0.92159505  -0.95500786 
C    2.62441466   1.51785739   0.88496064 
C    3.77981053   1.72393770   0.14733344 
H    3.31401857  -0.66044992  -2.19337168 
H    4.94247411   1.04088671  -1.52505385 
H    2.42281324   2.14571217   1.74747249 
H    4.48625353   2.49231640   0.43709716 
Pd   0.59053812  -1.55623454  -1.27480435 
Br  -1.14820876  -3.39466911  -1.83994635 
P    1.05793285  -2.91096316   0.38788252 
H    0.05077917  -3.26189425   1.30234212 
C    0.88710798  -0.76436403  -4.00339764 
O    1.79587939  -1.57350234  -4.10807459 
O    0.13377019  -0.47993362  -3.02476073 
O    0.55435464   0.01622872  -5.07121182 
H    2.07269789  -2.59342618   1.31492201 
H    1.50438807  -4.19919060   0.05462687 
H    1.18572126  -0.21260126  -5.75521098 
*
