! EnGrad PBEh-3c
%output 
xyzfile=True 
end 
%scf 
maxiter 250 
end
%output
Print[P_Hirshfeld] = 1
end
% maxcore
4000
*xyz -1 1
C   -2.79664762  -0.30054303   0.81413688 
C   -2.14644476   0.88473525   1.12793919 
C   -4.03341248  -0.60929198   1.37096154 
C   -4.66116034   0.29371177   2.21562799 
C   -4.00986337   1.47782420   2.53997044 
C   -2.75218947   1.75256941   2.02593418 
H   -2.31827955  -0.97640424   0.12553969 
H   -4.50400437  -1.56156468   1.13750449 
H   -2.22400849   2.66769638   2.30050140 
H   -5.66048144   0.08903435   2.60058695 
H   -4.49109982   2.21230994   3.15960619 
C   -0.80184627   1.21832850   0.53400358 
C    0.36894296   0.52837879   1.25273092 
H   -0.65464134   2.30152859   0.59597217 
H   -0.77269739   0.96152276  -0.52864956 
C    1.65420975   0.60606365   0.46854325 
H    0.08335858  -0.51052583   1.44402318 
H    0.50228002   0.99334781   2.23527695 
C    1.88678782  -0.20693529  -0.65512702 
C    3.07787171  -0.02445180  -1.35771259 
C    4.01208584   0.93090058  -0.97389705 
C    2.61810731   1.53617363   0.86251610 
C    3.78679409   1.72268247   0.14059481 
H    3.27565669  -0.63449240  -2.23061158 
H    4.91309246   1.06255966  -1.55976197 
H    2.45195463   2.13014043   1.75574030 
H    4.51385915   2.46711007   0.45117623 
Pd   0.58536787  -1.59804918  -1.30399178 
Br  -1.13803153  -3.43331307  -1.79726788 
P    1.08859593  -2.91315672   0.40178148 
H    0.09935139  -3.27952214   1.32440530 
C    0.85345828  -0.75166352  -3.98289391 
O    1.76690154  -1.55707753  -4.09579969 
O    0.12404314  -0.49636115  -2.97773006 
O    0.52561329   0.02891022  -5.05217077 
H    2.10936308  -2.58534167   1.31088535 
H    1.52544030  -4.19244448   0.03713593 
H    1.15700234  -0.21045186  -5.73593325 
*
