! EnGrad PBEh-3c
%output 
xyzfile=True 
end 
%scf 
maxiter 250 
end
%output
Print[P_Hirshfeld] = 1
end
% maxcore
4000
*xyz -1 1
C   -2.79725398  -0.29970080   0.81659857 
C   -2.14757726   0.88015452   1.12808975 
C   -4.02708128  -0.61255108   1.36329153 
C   -4.66802168   0.29410813   2.20626260 
C   -4.01360785   1.47748043   2.53621693 
C   -2.75119414   1.75881262   2.02419919 
H   -2.30570911  -0.98279296   0.11882839 
H   -4.50217359  -1.55147148   1.12803376 
H   -2.22629798   2.67730687   2.30291706 
H   -5.66611688   0.08904011   2.60116290 
H   -4.49643480   2.21515017   3.16779136 
C   -0.80668994   1.21856641   0.53938263 
C    0.36627562   0.52547286   1.25443055 
H   -0.64805545   2.30268108   0.59800246 
H   -0.76766320   0.96068538  -0.52370018 
C    1.65342060   0.60354117   0.47080507 
H    0.08676658  -0.51466662   1.44669329 
H    0.50542975   0.98770265   2.23688625 
C    1.88798963  -0.20587136  -0.65481376 
C    3.07747449  -0.02333071  -1.35970282 
C    4.00923433   0.93470304  -0.97934317 
C    2.61816459   1.53373748   0.86160712 
C    3.78586757   1.71949560   0.13985439 
H    3.27317747  -0.63096002  -2.23560575 
H    4.91161056   1.06192238  -1.56186483 
H    2.44988034   2.12962295   1.75159270 
H    4.51363106   2.46069099   0.45152639 
Pd   0.58512525  -1.59377206  -1.30359548 
Br  -1.13807121  -3.43753155  -1.79383391 
P    1.09004348  -2.91321543   0.40030608 
H    0.10225948  -3.28108050   1.32794926 
C    0.85280367  -0.75037734  -3.97948774 
O    1.76392065  -1.55312107  -4.09367260 
O    0.12656553  -0.49480838  -2.97188891 
O    0.52309212   0.03134476  -5.04946762 
H    2.11330482  -2.58310249   1.31165110 
H    1.52962794  -4.19453733   0.03728181 
H    1.15277217  -0.21147154  -5.73551246 
*
