! EnGrad PBEh-3c
%output 
xyzfile=True 
end 
%scf 
maxiter 250 
end
%output
Print[P_Hirshfeld] = 1
end
% maxcore
4000
*xyz -1 1
C   -2.79343676  -0.30338406   0.81616475 
C   -2.14529706   0.88346701   1.13159007 
C   -4.02469781  -0.61074265   1.35808227 
C   -4.67143819   0.29595063   2.19733424 
C   -4.01893433   1.48116792   2.53331296 
C   -2.75306303   1.76266301   2.02187656 
H   -2.29687011  -0.98911493   0.11369961 
H   -4.50187177  -1.54488432   1.11584472 
H   -2.23239420   2.68370441   2.30415416 
H   -5.66699995   0.08929237   2.59911965 
H   -4.50135305   2.21474931   3.17537889 
C   -0.80655248   1.22053410   0.54328464 
C    0.36438927   0.52212635   1.25661902 
H   -0.64167484   2.30174525   0.59946505 
H   -0.76439202   0.95993141  -0.51725707 
C    1.65292456   0.59961479   0.47298072 
H    0.09036725  -0.51904818   1.44922209 
H    0.50810936   0.98141551   2.23925239 
C    1.88783298  -0.20517649  -0.65567944 
C    3.07645526  -0.02224701  -1.36250729 
C    4.00638885   0.93781254  -0.98484330 
C    2.61686982   1.53178544   0.86038070 
C    3.78521132   1.71535347   0.13918545 
H    3.27039764  -0.62679700  -2.24072271 
H    4.91106911   1.06160225  -1.56492459 
H    2.44696341   2.12989484   1.74813144 
H    4.51314682   2.45390204   0.45201626 
Pd   0.58405202  -1.59107580  -1.30164498 
Br  -1.13764085  -3.44126573  -1.78969312 
P    1.09147590  -2.91310816   0.39845774 
H    0.10577452  -3.28261792   1.33141088 
C    0.85153064  -0.74724159  -3.97597760 
O    1.76220248  -1.54986634  -4.09146365 
O    0.12924308  -0.49165631  -2.96505797 
O    0.52074646   0.03377767  -5.04659672 
H    2.11733043  -2.58082759   1.31231718 
H    1.53440372  -4.19645827   0.03802600 
H    1.14739100  -0.21248678  -5.73508710 
*
