! EnGrad PBEh-3c
%output 
xyzfile=True 
end 
%scf 
maxiter 250 
end
%output
Print[P_Hirshfeld] = 1
end
% maxcore
4000
*xyz -1 1
C   -2.76442314  -0.40247657   0.77284011 
C   -2.12360606   0.86175133   1.13644193 
C   -3.99014645  -0.62179648   1.42491757 
C   -4.63383981   0.30621938   2.24960010 
C   -4.00170953   1.49442497   2.55682746 
C   -2.74102735   1.75332110   2.04022162 
H   -2.42952913  -1.06066633   0.07557087 
H   -4.49515708  -1.55111628   1.19941449 
H   -2.23315569   2.67380176   2.31815456 
H   -5.61825744   0.09221537   2.64384165 
H   -4.48820000   2.22636681   3.18616599 
C   -0.81497392   1.24163354   0.51019132 
C    0.35739053   0.55304413   1.23225560 
H   -0.65691195   2.32595480   0.52996659 
H   -0.83537499   0.96771715  -0.54243301 
C    1.65713810   0.61293154   0.47762705 
H    0.08340361  -0.48443594   1.42586820 
H    0.47143170   1.01847511   2.21728023 
C    1.89509713  -0.19657698  -0.64671255 
C    3.09806403  -0.03775388  -1.33634588 
C    4.02199679   0.92844992  -0.96057827 
C    2.61897803   1.53692441   0.87297012 
C    3.78946540   1.71633235   0.15293164 
H    3.30353676  -0.65590646  -2.20005074 
H    4.93339513   1.04913633  -1.53596720 
H    2.43647115   2.13539295   1.75830541 
H    4.48927536   2.49127369   0.43673277 
Pd   0.56784309  -1.56682766  -1.30849013 
Br  -1.13933977  -3.40009527  -1.82576401 
P    1.06963050  -2.91294819   0.39736640 
H    0.06326970  -3.26622365   1.30619030 
C    0.86475211  -0.76072830  -4.00068639 
O    1.78429476  -1.56994318  -4.10287014 
O    0.13370300  -0.51138690  -2.99093844 
O    0.55037002   0.01751450  -5.07508817 
H    2.08431590  -2.59535806   1.31272386 
H    1.50985592  -4.19900437   0.04807609 
H    1.18532295  -0.20706887  -5.75810295 
*
