! EnGrad PBEh-3c
%output 
xyzfile=True 
end 
%scf 
maxiter 250 
end
%output
Print[P_Hirshfeld] = 1
end
% maxcore
4000
*xyz -1 1
C   -2.78347488  -0.36007300   0.80148721 
C   -2.13037391   0.84351582   1.13053460 
C   -3.98454557  -0.62634016   1.41021318 
C   -4.62939386   0.30392249   2.24571426 
C   -4.00332392   1.49310593   2.55691108 
C   -2.73958626   1.74492587   2.03159381 
H   -2.41638571  -1.06059445   0.07343700 
H   -4.49602235  -1.55113774   1.19735602 
H   -2.23280490   2.67162139   2.31849592 
H   -5.62127509   0.09333029   2.63661483 
H   -4.49096830   2.22812309   3.18341659 
C   -0.81134492   1.24089079   0.51354022 
C    0.36038582   0.55225175   1.23427975 
H   -0.65685747   2.32581799   0.53699061 
H   -0.83142252   0.96848636  -0.54206870 
C    1.65954687   0.60977601   0.47943066 
H    0.08235665  -0.48564246   1.42682828 
H    0.47398937   1.01742656   2.21931568 
C    1.89266825  -0.19667088  -0.64968945 
C    3.09617899  -0.03698277  -1.33648966 
C    4.02224490   0.92894046  -0.96211301 
C    2.61829756   1.54178662   0.87028408 
C    3.79078355   1.71590903   0.15401778 
H    3.30078993  -0.65486259  -2.20243727 
H    4.93092580   1.05133480  -1.53848759 
H    2.43956836   2.13399684   1.76098991 
H    4.49101266   2.49057026   0.43749982 
Pd   0.56588447  -1.57279687  -1.31169830 
Br  -1.13778309  -3.40178932  -1.82239144 
P    1.07078257  -2.91173254   0.39590498 
H    0.06616528  -3.26771413   1.30801074 
C    0.86548522  -0.76491198  -3.99754853 
O    1.77698769  -1.56450059  -4.10166257 
O    0.13392245  -0.51468445  -2.98831689 
O    0.54672275   0.01924572  -5.07347359 
H    2.08820803  -2.59512987   1.31368254 
H    1.51111063  -4.19872867   0.04653141 
H    1.18591340  -0.20707495  -5.75907202 
*
