! EnGrad PBEh-3c
%output 
xyzfile=True 
end 
%scf 
maxiter 250 
end
%output
Print[P_Hirshfeld] = 1
end
% maxcore
4000
*xyz -1 1
C   -2.82154733  -0.27297235   0.85162743 
C   -2.13192838   0.85283734   1.12477025 
C   -4.01117184  -0.62387542   1.38711221 
C   -4.62611195   0.28661073   2.23357453 
C   -3.99578107   1.48393947   2.54624433 
C   -2.73884761   1.72568330   2.01349971 
H   -2.37294608  -1.03079048   0.09163216 
H   -4.49965756  -1.55979499   1.18201291 
H   -2.23498408   2.64720166   2.30746020 
H   -5.62370696   0.09492202   2.60775129 
H   -4.49778104   2.23064433   3.17255894 
C   -0.80385300   1.22632614   0.52337190 
C    0.36959031   0.54537982   1.24256255 
H   -0.66195278   2.31753942   0.56553661 
H   -0.81092386   0.96903207  -0.54046025 
C    1.66453211   0.60281104   0.47680468 
H    0.07868921  -0.49134881   1.43122459 
H    0.48429346   1.01224649   2.22725461 
C    1.88240528  -0.20185046  -0.65930293 
C    3.08735217  -0.03281209  -1.34190184 
C    4.02209971   0.92758804  -0.96375947 
C    2.61640599   1.55135977   0.86347761 
C    3.79328503   1.71892212   0.15228150 
H    3.29001244  -0.64905185  -2.21122350 
H    4.92358199   1.05939927  -1.54869391 
H    2.44955709   2.13201605   1.76867565 
H    4.50052410   2.48648449   0.44268596 
Pd   0.57001585  -1.59766436  -1.30904500 
Br  -1.13509658  -3.41074185  -1.81097886 
P    1.07404641  -2.90680015   0.38885298 
H    0.07828210  -3.27341359   1.31507294 
C    0.86181937  -0.76648817  -3.99051313 
O    1.76669213  -1.55819233  -4.09978944 
O    0.12865890  -0.51340536  -2.98562788 
O    0.53658314   0.02306037  -5.06650750 
H    2.10122661  -2.59291285   1.31666279 
H    1.51533421  -4.19578241   0.04134296 
H    1.17978175  -0.20705656  -5.75306453 
*
