! EnGrad PBEh-3c
%output 
xyzfile=True 
end 
%scf 
maxiter 250 
end
%output
Print[P_Hirshfeld] = 1
end
% maxcore
4000
*xyz -1 1
C   -2.80228628  -0.30850250   0.81656412 
C   -2.12370866   0.89680044   1.13147141 
C   -4.04240631  -0.61393732   1.39096230 
C   -4.64258342   0.29280493   2.23787293 
C   -4.00004321   1.47607982   2.54215608 
C   -2.74279089   1.74500521   2.02566709 
H   -2.36022565  -0.99236396   0.12006209 
H   -4.50231248  -1.56964381   1.16573071 
H   -2.23455812   2.63648486   2.29677406 
H   -5.62807399   0.09232593   2.59926918 
H   -4.49084301   2.21941593   3.16096640 
C   -0.79829903   1.22337629   0.52270746 
C    0.37096432   0.53706650   1.24709371 
H   -0.66567923   2.30390245   0.57936984 
H   -0.79627953   0.96567438  -0.53748558 
C    1.66049801   0.60548936   0.47009208 
H    0.07862819  -0.49686006   1.43518064 
H    0.49055578   1.00724853   2.23058402 
C    1.88189975  -0.20605384  -0.65910366 
C    3.08250221  -0.02984664  -1.34907096 
C    4.01918455   0.92558480  -0.96374647 
C    2.61639152   1.54642115   0.86309492 
C    3.79125313   1.72311336   0.14697558 
H    3.28453670  -0.64402738  -2.21658620 
H    4.92067290   1.06187259  -1.55344970 
H    2.45192034   2.13249209   1.76645570 
H    4.50738426   2.48165047   0.44695638 
Pd   0.57831812  -1.60364800  -1.30425368 
Br  -1.13632009  -3.41831001  -1.80659322 
P    1.07906757  -2.90883101   0.39411249 
H    0.08653826  -3.27538822   1.31725932 
C    0.85426370  -0.75505229  -3.99009761 
O    1.77412812  -1.56480716  -4.09999336 
O    0.12394530  -0.50426985  -2.98533481 
O    0.53476268   0.02322647  -5.06244498 
H    2.10289868  -2.59065098   1.31407240 
H    1.51729982  -4.19241592   0.03946903 
H    1.16979844  -0.20760161  -5.74351278 
*
