! EnGrad PBEh-3c
%output 
xyzfile=True 
end 
%scf 
maxiter 250 
end
%output
Print[P_Hirshfeld] = 1
end
% maxcore
4000
*xyz -1 1
C   -2.79671722  -0.31184132   0.80555012 
C   -2.12887281   0.90220656   1.13079840 
C   -4.04819266  -0.60923634   1.38333747 
C   -4.65124536   0.29530464   2.23554349 
C   -4.00256623   1.47440120   2.54065564 
C   -2.74880965   1.74921237   2.02848502 
H   -2.34722957  -0.96800565   0.13815779 
H   -4.50457028  -1.57366468   1.15404631 
H   -2.23108335   2.63851362   2.29408076 
H   -5.63705112   0.09120714   2.59364902 
H   -4.48841367   2.21338537   3.15373400 
C   -0.79433827   1.22161094   0.52521801 
C    0.37253475   0.53232165   1.25044661 
H   -0.66542296   2.29809133   0.59019434 
H   -0.78533276   0.96405691  -0.53492041 
C    1.65865429   0.60583700   0.46787695 
H    0.07881400  -0.50168710   1.43853621 
H    0.49585579   1.00283082   2.23337258 
C    1.88187733  -0.20778110  -0.65911178 
C    3.07917502  -0.02752667  -1.35339448 
C    4.01693920   0.92570207  -0.96574622 
C    2.61643949   1.54444009   0.86197027 
C    3.79018133   1.72470230   0.14418012 
H    3.27995824  -0.64021971  -2.22169533 
H    4.91728558   1.06382611  -1.55722189 
H    2.45424785   2.13161646   1.76492746 
H    4.51191132   2.47746634   0.44959161 
Pd   0.58183881  -1.60713745  -1.30412792 
Br  -1.13651258  -3.42431409  -1.80214667 
P    1.08346902  -2.91029476   0.39793790 
H    0.09308755  -3.27727712   1.31963009 
C    0.85221004  -0.75232329  -3.98808375 
O    1.77245368  -1.56369524  -4.09890430 
O    0.12183315  -0.50098078  -2.98299820 
O    0.53117045   0.02475527  -5.05857806 
H    2.10559186  -2.58901037   1.31239633 
H    1.51966344  -4.19075958   0.03768426 
H    1.16421327  -0.20818018  -5.73881227 
*
