! EnGrad PBEh-3c
%output 
xyzfile=True 
end 
%scf 
maxiter 250 
end
%output
Print[P_Hirshfeld] = 1
end
% maxcore
4000
*xyz 1 1
Ir   0.45819415  -0.69379557   0.91103475 
C   -0.08603961  -2.72800493   1.61994993 
C    0.76713295  -2.09767994   2.57824225 
C    1.90108493  -2.30479905   0.60135675 
C    0.63108460  -2.85830055   0.39894572 
C    1.99191625  -1.83050351   1.95602878 
N   -0.98573684  -0.00207567  -0.43457938 
C   -2.42599878   0.06587852   0.02316325 
C   -2.88193646   1.47678564   0.35001280 
H   -3.91438568   1.44928023   0.70089300 
H   -2.83147196   2.12297257  -0.52350669 
H   -2.30766313   1.91004380   1.15304590 
C   -3.38023783  -0.59060254  -0.97256258 
H   -2.45177799  -0.51763701   0.93788606 
H   -4.36213665  -0.68323669  -0.50120794 
H   -3.53479296   0.00525028  -1.87159418 
H   -3.06086307  -1.58782391  -1.25804849 
C   -0.70902838   0.29161174  -1.65477372 
C    0.60119580   0.19945375  -2.25483757 
H   -1.52819814   0.57156788  -2.30414138 
C    1.88425599   0.22053503  -1.63320911 
C    2.87424037  -0.00351696  -2.61697528 
S    0.72515312   0.10550590  -3.98736139 
C    2.42016361  -0.02923559  -3.90730434 
H    2.18475535   0.91495505  -0.84128941 
H    3.92418128   0.01799332  -2.37341854 
H    3.02516752  -0.13841892  -4.79305107 
H   -0.96805413  -3.30808166   1.87100706 
H    0.51292198  -1.96109323   3.62098920 
H    2.87937604  -1.44110027   2.41380910 
O    1.74402810   1.71691202   0.71951519 
O    0.01058335   1.03628177   1.95156674 
C    0.83946924   1.98389704   1.56976681 
C    0.74465497   3.37006526   2.15482767 
H    0.82032622   4.11433129   1.35988100 
H    1.60462157   3.53540627   2.81111844 
H   -0.16399766   3.51748596   2.72548142 
H    2.74642170  -2.40630453  -0.06012400 
H    0.30035290  -3.44314503  -0.43968116 
*
