! EnGrad PBEh-3c
%output 
xyzfile=True 
end 
%scf 
maxiter 250 
end
%output
Print[P_Hirshfeld] = 1
end
% maxcore
4000
*xyz 1 1
Ir   0.44248413  -0.72277689   0.95792018 
C   -0.08502125  -2.72712108   1.57868673 
C    0.74405522  -2.11067926   2.58345770 
C    1.96656742  -2.34835575   0.66429660 
C    0.69039926  -2.89161740   0.40062701 
C    1.99467348  -1.82575192   2.00125927 
N   -1.00101893  -0.01895193  -0.44769604 
C   -2.42264013   0.05015123   0.01807349 
C   -2.87149237   1.46576230   0.38954424 
H   -3.91670569   1.41832372   0.70607443 
H   -2.83041213   2.13090433  -0.47883356 
H   -2.27092777   1.88263181   1.20653689 
C   -3.38886259  -0.58153334  -0.97886769 
H   -2.45120028  -0.55999493   0.93372573 
H   -4.36095454  -0.67702445  -0.50419245 
H   -3.54456402   0.03409826  -1.86819196 
H   -3.07292396  -1.58294027  -1.29687058 
C   -0.70095829   0.29415358  -1.65365443 
C    0.60301286   0.22995257  -2.23383081 
H   -1.53986256   0.57242584  -2.32017956 
C    1.88769846   0.37722139  -1.74605598 
C    2.89383973   0.01328000  -2.62998045 
S    0.71788436   0.06483822  -3.94651300 
C    2.40876938  -0.06941978  -3.90086703 
H    2.07571384   0.73799434  -0.77679318 
H    3.92354056  -0.00639777  -2.35807631 
H    3.00556552  -0.12626169  -4.79241192 
H   -1.02417932  -3.22899536   1.78352973 
H    0.43513053  -1.91431907   3.58931149 
H    2.85998744  -1.39537067   2.50133587 
O    1.73909886   1.70103688   0.72868077 
O    0.04490072   1.05840996   1.92639595 
C    0.88472622   1.96700486   1.53130980 
C    0.75201644   3.34567560   2.13020385 
H    0.81442249   4.10858765   1.35262523 
H    1.60640537   3.53406459   2.78028732 
H   -0.15737346   3.52377915   2.71577437 
H    2.77738130  -2.31209958  -0.04367960 
H    0.36742754  -3.40572445  -0.50133829 
*
