! EnGrad PBEh-3c
%output 
xyzfile=True 
end 
%scf 
maxiter 250 
end
%output
Print[P_Hirshfeld] = 1
end
% maxcore
4000
*xyz 1 1
Ir   0.43745118  -0.74851225   0.97166408 
C   -0.08396461  -2.72809711   1.55549292 
C    0.72289586  -2.11439670   2.57602807 
C    1.99642621  -2.36067328   0.70024558 
C    0.74042754  -2.91013491   0.39610429 
C    1.99752432  -1.82329829   2.04608630 
N   -1.00044965  -0.03354631  -0.44039729 
C   -2.42174367   0.03440482   0.02243868 
C   -2.85772634   1.45303087   0.41850551 
H   -3.91390482   1.39692250   0.71712648 
H   -2.82619873   2.13409423  -0.43773050 
H   -2.25558279   1.85468836   1.23821178 
C   -3.39116782  -0.57822933  -0.99090600 
H   -2.45110302  -0.58603564   0.91979844 
H   -4.36604248  -0.67343611  -0.50518002 
H   -3.55243441   0.05589733  -1.86331543 
H   -3.08552284  -1.56923423  -1.32396645 
C   -0.72209117   0.29970300  -1.65242213 
C    0.59982842   0.26637174  -2.25589552 
H   -1.53185013   0.56790503  -2.32308554 
C    1.87770660   0.42963405  -1.78006132 
C    2.89896644   0.04740118  -2.64909614 
S    0.70784576   0.03231141  -3.94130287 
C    2.40198285  -0.09652849  -3.90553024 
H    2.01671052   0.63863047  -0.70662295 
H    3.93475936  -0.02415207  -2.34552174 
H    2.99009819  -0.12483957  -4.79492313 
H   -1.06243811  -3.17332182   1.71309267 
H    0.37116625  -1.88268412   3.57433530 
H    2.83180448  -1.36653226   2.56254319 
O    1.76742725   1.69063211   0.71413612 
O    0.05892906   1.05019938   1.91409774 
C    0.89786948   1.97186648   1.51722905 
C    0.75248186   3.34499938   2.11735297 
H    0.81121202   4.10250634   1.34372974 
H    1.61171035   3.53292598   2.75818525 
H   -0.14230776   3.51860192   2.69984517 
H    2.80667984  -2.24662790  -0.02225565 
H    0.42753421  -3.37554980  -0.53693672 
*
