! EnGrad PBEh-3c
%output 
xyzfile=True 
end 
%scf 
maxiter 250 
end
%output
Print[P_Hirshfeld] = 1
end
% maxcore
4000
*xyz 0 1
Lu   0.22610218   0.27936990  -0.16941972 
C    0.36999183   0.97619237   2.42030586 
C    1.34298942  -0.02968805   2.19117316 
C    2.29619131   0.46137848   1.27714481 
C    1.91303384   1.77830674   0.94214851 
C    0.69924605   2.07299701   1.60610185 
H    2.43813199   2.43986155   0.26817632 
H    0.18232905   3.02058180   1.62134837 
H   -0.44324235   0.93611477   3.13041984 
H    1.37315311  -0.99277979   2.68300870 
H    3.18258732  -0.05391733   0.94025517 
C    1.00834851  -0.06305450  -2.56297366 
C   -0.29959650  -0.59361305  -2.56719114 
C    1.02199630  -1.93535586  -1.27816445 
C    1.82604015  -0.88509322  -1.76051907 
H    1.32517305   0.83269556  -3.07793943 
C   -0.27419354  -1.79352540  -1.84015838 
H   -1.13108789  -0.26184998  -3.16930419 
H    2.87887732  -0.74440054  -1.56828473 
H    1.35813252  -2.76162989  -0.66553528 
H   -1.10384725  -2.48306231  -1.75106925 
C   -2.51872521  -1.59681590   1.36244475 
H   -2.53641091  -1.39746204   2.42397159 
H   -2.97460043  -2.54302520   1.10249484 
H   -2.81632588  -0.79476299   0.69571653 
C   -1.87451124   1.73301795  -0.70376361 
H   -1.01742512  -1.63108013   1.05519088 
H   -1.41473276   2.52703396  -1.30557704 
H   -2.44509485   2.26154436   0.06484331 
H   -2.59254002   1.24202626  -1.36484547 
*
