! EnGrad PBEh-3c
%output 
xyzfile=True 
end 
%scf 
maxiter 250 
end
%output
Print[P_Hirshfeld] = 1
end
% maxcore
4000
*xyz 0 1
Lu   0.12170209   0.33548748  -0.19297985 
C    0.38371705   0.96735854   2.39211122 
C    1.35457362  -0.03517762   2.15806133 
C    2.29571227   0.47299941   1.24429658 
C    1.91604362   1.78500790   0.91331963 
C    0.72367292   2.09286878   1.61634044 
H    2.47954329   2.46600639   0.28644523 
H    0.20424685   3.03358455   1.60754046 
H   -0.41307509   0.91004638   3.11461923 
H    1.42721242  -0.97546926   2.67569036 
H    3.19295191  -0.03751021   0.92005659 
C    1.00606554  -0.02874783  -2.55348784 
C   -0.28684933  -0.59987141  -2.59529187 
C    1.04449185  -1.91123975  -1.28015977 
C    1.82025162  -0.83498272  -1.74014418 
H    1.33108356   0.84966492  -3.10106976 
C   -0.25128107  -1.78001296  -1.82646341 
H   -1.12430499  -0.23554114  -3.16398603 
H    2.87812193  -0.69870578  -1.55109675 
H    1.40786154  -2.76097536  -0.72573545 
H   -1.03729873  -2.51524834  -1.74304155 
C   -2.50282945  -1.56562890   1.36649980 
H   -2.58927812  -1.37452933   2.41870054 
H   -2.94250917  -2.50389570   1.09438289 
H   -2.98707103  -0.78183054   0.79692047 
C   -1.78122269   1.68152024  -0.72636059 
H   -1.43101035  -1.66649297   1.13127812 
H   -1.43152850   2.53239905  -1.34736541 
H   -2.34173030   2.13610251   0.11167540 
H   -2.52167614   1.15859974  -1.35829009 
*
