! EnGrad PBEh-3c
%output 
xyzfile=True 
end 
%scf 
maxiter 250 
end
%output
Print[P_Hirshfeld] = 1
end
% maxcore
4000
*xyz 0 1
Lu   0.08211129   0.35505689  -0.19069023 
C    0.39738003   0.97408234   2.40827116 
C    1.36029708  -0.03035349   2.17539637 
C    2.30364775   0.47061004   1.26309112 
C    1.91811054   1.78458931   0.91522819 
C    0.73586441   2.09057939   1.62895432 
H    2.48666286   2.46528679   0.29811815 
H    0.19758527   3.02958641   1.59951787 
H   -0.40740416   0.92207044   3.13123245 
H    1.43984981  -0.97400863   2.70412803 
H    3.19060985  -0.04232872   0.92735133 
C    1.00697108  -0.02812309  -2.55324184 
C   -0.27724409  -0.61418116  -2.60568300 
C    1.04507870  -1.92959568  -1.29377392 
C    1.82801451  -0.85258886  -1.74687204 
H    1.33284635   0.83829243  -3.10868937 
C   -0.24836481  -1.79092169  -1.84072148 
H   -1.12893385  -0.23238022  -3.15094732 
H    2.87884935  -0.71441215  -1.55705852 
H    1.40817388  -2.77632165  -0.72609901 
H   -1.03887037  -2.52880206  -1.77815353 
C   -2.49477610  -1.56839363   1.36313559 
H   -2.57953983  -1.37476888   2.43139183 
H   -2.92793811  -2.52709979   1.09016417 
H   -2.96206744  -0.76234868   0.77975175 
C   -1.80529003   1.69217923  -0.71749726 
H   -1.41777811  -1.68010513   1.12585429 
H   -1.43639202   2.52719695  -1.33672224 
H   -2.38570535   2.16986295   0.08442205 
H   -2.54090972   1.18371884  -1.35639163 
*
