! EnGrad PBEh-3c
%output 
xyzfile=True 
end 
%scf 
maxiter 250 
end
%output
Print[P_Hirshfeld] = 1
end
% maxcore
4000
*xyz 0 1
Lu   0.16400803   0.29546429  -0.17086838 
C    0.39560370   0.97071682   2.41193366 
C    1.34850004  -0.02486071   2.21123948 
C    2.29678656   0.46754426   1.28074347 
C    1.91646289   1.78075685   0.93696862 
C    0.71510933   2.08330521   1.62359944 
H    2.45771036   2.44553513   0.28394128 
H    0.18726642   3.02061005   1.60584243 
H   -0.43233510   0.94149824   3.13600696 
H    1.40129456  -0.97878227   2.70150598 
H    3.18607369  -0.05712468   0.93751932 
C    1.01408602  -0.05106112  -2.56253260 
C   -0.29143606  -0.60863469  -2.58071083 
C    1.02221154  -1.95762749  -1.29726089 
C    1.82430150  -0.87560314  -1.76090537 
H    1.32780157   0.82733034  -3.09020952 
C   -0.25173588  -1.79630919  -1.84376289 
H   -1.13023953  -0.24809747  -3.15601980 
H    2.88281385  -0.74246390  -1.56627694 
H    1.37275762  -2.76807562  -0.68621300 
H   -1.08553383  -2.49716954  -1.78146279 
C   -2.40108987  -1.59403522   1.32659760 
H   -2.56879870  -1.39258971   2.43300180 
H   -2.98956286  -2.56019169   1.10977867 
H   -2.83715536  -0.77989691   0.72941016 
C   -1.84489661   1.71328102  -0.69955572 
H   -1.19564110  -1.63395672   1.08225762 
H   -1.42720881   2.53135503  -1.31211755 
H   -2.46304741   2.26141375   0.06304133 
H   -2.60000602   1.23362003  -1.36791975 
*
