! EnGrad PBEh-3c
%output 
xyzfile=True 
end 
%scf 
maxiter 250 
end
%output
Print[P_Hirshfeld] = 1
end
% maxcore
4000
*xyz 0 1
Lu   0.07611180   0.32771807  -0.17667169 
C    0.39628065   0.97357078   2.42655824 
C    1.37428684  -0.02491027   2.21809451 
C    2.30447926   0.47079433   1.28841393 
C    1.91679532   1.78263497   0.92967744 
C    0.74672972   2.09659685   1.64061471 
H    2.48453343   2.45613701   0.30402179 
H    0.19033661   3.02150974   1.58812454 
H   -0.40396400   0.94624499   3.13424647 
H    1.43779056  -0.96714605   2.72846232 
H    3.18539067  -0.05627715   0.93541059 
C    1.01089260  -0.04335824  -2.55514238 
C   -0.27032030  -0.62043734  -2.60777364 
C    1.04560936  -1.96762918  -1.32204884 
C    1.82415533  -0.87281154  -1.75782877 
H    1.33284820   0.82690314  -3.11120768 
C   -0.25010339  -1.81164107  -1.84966148 
H   -1.13020961  -0.23267893  -3.13671462 
H    2.88375161  -0.73859800  -1.56449163 
H    1.39392798  -2.78284741  -0.71037542 
H   -1.05287952  -2.51433814  -1.82008989 
C   -2.27439213  -1.60464784   1.31001752 
H   -2.59831501  -1.39141619   2.40851380 
H   -2.97651125  -2.55011213   1.12082622 
H   -2.86598860  -0.76767483   0.77551920 
C   -1.82116416   1.69071552  -0.69209913 
H   -1.46332866  -1.63917258   1.12358282 
H   -1.44354514   2.53454281  -1.32071087 
H   -2.47181572   2.24822669   0.04990431 
H   -2.59606304   1.22638245  -1.36379355 
*
