! EnGrad PBEh-3c
%output 
xyzfile=True 
end 
%scf 
maxiter 250 
end
%output
Print[P_Hirshfeld] = 1
end
% maxcore
4000
*xyz 0 1
Lu   0.11928236   0.31187651  -0.17382137 
C    0.39594816   0.97216905   2.41937532 
C    1.36162156  -0.02488593   2.21472763 
C    2.30070097   0.46919804   1.28464655 
C    1.91663204   1.78171252   0.93325853 
C    0.73119925   2.09006861   1.63225760 
H    2.47135918   2.45092986   0.29415917 
H    0.18882868   3.02106786   1.59682674 
H   -0.41789857   0.94391361   3.13511114 
H    1.41986542  -0.97286122   2.71522261 
H    3.18572614  -0.05669342   0.93644630 
C    1.01246106  -0.04714154  -2.55877212 
C   -0.28069139  -0.61464042  -2.59448165 
C    1.03411744  -1.96271681  -1.30987415 
C    1.82422712  -0.87418264  -1.75933985 
H    1.33036953   0.82711296  -3.10089436 
C   -0.25090519  -1.80411076  -1.84676437 
H   -1.13022431  -0.24025180  -3.14619643 
H    2.88329102  -0.74049675  -1.56536849 
H    1.38353008  -2.77559219  -0.69850796 
H   -1.06891781  -2.50590572  -1.80111805 
C   -2.33662019  -1.59943541   1.31816089 
H   -2.58381797  -1.39199257   2.42054117 
H   -2.98292160  -2.55506274   1.11540017 
H   -2.85182705  -0.77367775   0.75287257 
C   -1.83282044   1.70179865  -0.69576146 
H   -1.33185293  -1.63661079   1.10328580 
H   -1.43552149   2.53297712  -1.31649023 
H   -2.46750913   2.25470356   0.05635660 
H   -2.59799965   1.22993722  -1.36582015 
*
