! EnGrad PBEh-3c
%output 
xyzfile=True 
end 
%scf 
maxiter 250 
end
%output
Print[P_Hirshfeld] = 1
end
% maxcore
4000
*xyz 0 1
Lu   0.06496773   0.33392709  -0.17768919 
C    0.39587313   0.97727083   2.42140590 
C    1.37257632  -0.02317615   2.21178871 
C    2.30553619   0.46930112   1.28691682 
C    1.91781488   1.78004795   0.92666314 
C    0.74381784   2.09579484   1.64306743 
H    2.48471261   2.45618529   0.30217117 
H    0.19100801   3.02222263   1.58670931 
H   -0.40781151   0.94444077   3.13216066 
H    1.43684943  -0.97038891   2.72959788 
H    3.18250024  -0.05471800   0.93695309 
C    1.01031531  -0.04142882  -2.55421713 
C   -0.27180269  -0.62160096  -2.60957888 
C    1.04792050  -1.96148588  -1.32050759 
C    1.82593979  -0.87469144  -1.75446414 
H    1.33366656   0.82867780  -3.11066637 
C   -0.25120708  -1.80352825  -1.84917907 
H   -1.12888389  -0.23096018  -3.13666317 
H    2.88071417  -0.73864597  -1.56440551 
H    1.39415225  -2.78462293  -0.70989876 
H   -1.05650737  -2.51493528  -1.81442592 
C   -2.38773155  -1.60099733   1.33330228 
H   -2.58141185  -1.39295262   2.38498310 
H   -2.94531072  -2.52576356   1.11956413 
H   -2.85010482  -0.78147365   0.78440894 
C   -1.82672441   1.69333388  -0.69308053 
H   -1.40863599  -1.65499295   1.11704376 
H   -1.44383440   2.53029558  -1.31920877 
H   -2.45858295   2.23702151   0.04636538 
H   -2.58621890   1.22739059  -1.35733860 
*
