! EnGrad PBEh-3c
%output 
xyzfile=True 
end 
%scf 
maxiter 250 
end
%output
Print[P_Hirshfeld] = 1
end
% maxcore
4000
*xyz 0 1
Lu   0.06035912   0.34515495  -0.18153495 
C    0.39897005   0.97913863   2.42069097 
C    1.37128294  -0.02676383   2.20472619 
C    2.30870475   0.47164330   1.28654811 
C    1.91841951   1.77832267   0.92345168 
C    0.74342461   2.09614759   1.64417163 
H    2.48471536   2.45882221   0.30261166 
H    0.19053281   3.02132942   1.58952832 
H   -0.40776563   0.94065280   3.13601940 
H    1.43765098  -0.97361656   2.72752443 
H    3.18275001  -0.05177468   0.93621112 
C    1.01033999  -0.03872316  -2.55175860 
C   -0.27205427  -0.62373963  -2.61472012 
C    1.05045563  -1.95703664  -1.31560066 
C    1.82809495  -0.87440938  -1.75617404 
H    1.33285731   0.82938247  -3.11161167 
C   -0.25141821  -1.79969863  -1.84848087 
H   -1.12935745  -0.23270415  -3.13663295 
H    2.87937974  -0.73581332  -1.56433742 
H    1.39654260  -2.78553828  -0.71082127 
H   -1.05512115  -2.52181419  -1.81070044 
C   -2.45734755  -1.59274749   1.34903299 
H   -2.57298512  -1.39186362   2.38553415 
H   -2.92754541  -2.51864682   1.11469857 
H   -2.86302181  -0.78404457   0.78368830 
C   -1.83254427   1.69879509  -0.69763060 
H   -1.38136925  -1.66113103   1.11193868 
H   -1.44388610   2.52510355  -1.31826280 
H   -2.44459311   2.22425677   0.04375681 
H   -2.57418297   1.22616368  -1.35242179 
*
