! EnGrad PBEh-3c
%output 
xyzfile=True 
end 
%scf 
maxiter 250 
end
%output
Print[P_Hirshfeld] = 1
end
% maxcore
4000
*xyz 0 1
Lu   0.03793222   0.36635423  -0.18795342 
C    0.40171514   0.97673874   2.42385795 
C    1.37137530  -0.03184550   2.19676493 
C    2.30948922   0.47481049   1.28351721 
C    1.91868772   1.78056923   0.91758374 
C    0.75038348   2.10021095   1.64301450 
H    2.49153556   2.46439357   0.30740087 
H    0.19250970   3.02221034   1.58969630 
H   -0.40034495   0.93494498   3.13751901 
H    1.44754146  -0.97140160   2.72693483 
H    3.18678343  -0.04862228   0.93297687 
C    1.01026777  -0.03204564  -2.54890884 
C   -0.26675247  -0.62502041  -2.62282787 
C    1.05226859  -1.95156093  -1.31209578 
C    1.82668085  -0.86755538  -1.75708741 
H    1.33342629   0.83034173  -3.11637542 
C   -0.24952245  -1.80286566  -1.84653444 
H   -1.13071128  -0.22975562  -3.13581046 
H    2.88144283  -0.72858425  -1.56196641 
H    1.40568560  -2.78777997  -0.72116378 
H   -1.04137853  -2.53186120  -1.81018437 
C   -2.46912146  -1.57650360   1.35181525 
H   -2.57580030  -1.38277929   2.41247484 
H   -2.91851845  -2.53378975   1.10136502 
H   -2.91025935  -0.76575230   0.78404412 
C   -1.82077865   1.69702562  -0.70617997 
H   -1.42936826  -1.67467415   1.12162815 
H   -1.44606439   2.52046495  -1.32233489 
H   -2.42645689   2.20207729   0.05082639 
H   -2.55908481   1.21326026  -1.35010184 
*
