27
Generated by autodE on: 2023-07-13. E = -2061.489798 Ha
Pd   -2.13148  -1.58503   0.36085
Cl   -3.09291  -3.27589  -0.81056
Cl    0.12810  -3.19574   1.69515
Cl   -4.14703  -0.89894   1.21238
N    -1.13324  -0.05298   1.30090
C    -1.51627   0.51071   2.42595
C    -0.88677   1.64894   2.93368
C     0.12615   2.23319   2.21658
C    -0.07687   0.44789   0.62215
C     0.54861   1.64150   1.01883
H     0.59048   3.14986   2.55952
H    -2.37189   0.07018   2.91693
H    -1.23508   2.07451   3.86317
C     0.33468  -0.22729  -0.56989
C     1.54072   2.20864   0.15967
C     1.84770   1.63347  -1.02573
C     1.24276   0.40357  -1.43702
H     2.02390   3.12809   0.46662
H     2.57886   2.09707  -1.67844
C    -0.18299  -1.50760  -0.86519
C     1.52943  -0.21417  -2.66562
C     0.07302  -2.05389  -2.10721
C     0.91939  -1.39982  -3.01046
H     2.23433   0.25199  -3.34267
H     1.13142  -1.84957  -3.97234
H    -0.31506  -2.26262   0.03268
H    -0.36498  -3.01298  -2.34953
