! EnGrad PBEh-3c
%output 
xyzfile=True 
end 
%scf 
maxiter 250 
end
%output
Print[P_Hirshfeld] = 1
end
% maxcore
4000
*xyz 0 1
C   -1.84135533   0.17423877  -0.20773902 
C   -1.81026796  -0.72631004  -1.23811237 
C   -1.20424102  -1.95392711  -1.09039600 
C   -0.52714227  -2.24628501   0.07060229 
C   -1.23523091  -0.20427264   0.96576761 
C   -0.52285505  -1.36801862   1.12034639 
H   -2.29920517   1.15093401  -0.34521610 
H   -2.27883774  -0.46265455  -2.14073383 
H   -1.26930810  -2.68867687  -1.87965818 
H    0.04740043  -1.58426798   2.01965909 
H   -0.02344810  -3.16112217   0.18859568 
Pd   1.49783208   1.27581705   0.10368353 
O    2.61640683   0.92551685  -1.59578908 
O    2.60930426  -0.41826182   0.08678251 
O    0.37658399   2.90846271  -0.03843979 
C    0.13993108   2.95339760   1.19987017 
O    0.63815727   2.06997243   1.94231118 
H   -1.32139223   0.44361155   1.82768934 
C    3.05728615  -0.11498740  -1.04966203 
H    3.83428125  -0.72660398  -1.52614882 
H   -0.49950671   3.76246908   1.58531241 
*
