! EnGrad PBEh-3c
%output 
xyzfile=True 
end 
%scf 
maxiter 250 
end
%output
Print[P_Hirshfeld] = 1
end
% maxcore
4000
*xyz 0 1
C   -1.84875613   0.17047254  -0.23614756 
C   -1.84445731  -0.74836237  -1.25548288 
C   -1.24085513  -1.96891429  -1.07883668 
C   -0.54728785  -2.28403224   0.06331452 
C   -1.22004166  -0.19045737   0.96844311 
C   -0.51289039  -1.39503454   1.10778627 
H   -2.29101814   1.16542208  -0.31861992 
H   -2.31766614  -0.45125378  -2.15996952 
H   -1.30551437  -2.68525032  -1.84743026 
H    0.03886572  -1.56582942   2.03277917 
H   -0.01892812  -3.19671156   0.20416165 
Pd   1.52065685   1.29600844   0.10665648 
O    2.61000732   0.94398872  -1.57875453 
O    2.62819838  -0.40522873   0.10340264 
O    0.39853562   2.92952763  -0.04298274 
C    0.14679925   2.94413773   1.19726848 
O    0.63160498   2.05036850   1.92066636 
H   -1.25885208   0.45130618   1.77155698 
C    3.06017836  -0.09878712  -1.03639725 
H    3.84516672  -0.69287034  -1.51063639 
H   -0.49339167   3.75111502   1.58810502 
*
