! EnGrad PBEh-3c
%output 
xyzfile=True 
end 
%scf 
maxiter 250 
end
%output
Print[P_Hirshfeld] = 1
end
% maxcore
4000
*xyz 0 1
C   -1.83565206   0.17030408  -0.21390289 
C   -1.86168551  -0.74490333  -1.26091106 
C   -1.25474007  -1.98072221  -1.08073473 
C   -0.55028748  -2.29757511   0.07215346 
C   -1.21251079  -0.19650631   0.95267080 
C   -0.52251383  -1.37210250   1.10909093 
H   -2.28632274   1.16110897  -0.31473243 
H   -2.34209815  -0.45429595  -2.18902294 
H   -1.32261541  -2.70298894  -1.85526252 
H    0.03389308  -1.56369505   2.02831177 
H   -0.01376100  -3.23248845   0.20114441 
Pd   1.52263773   1.30293489   0.11415724 
O    2.60770148   0.94855712  -1.57379740 
O    2.63604229  -0.39852005   0.11036499 
O    0.40948085   2.94203999  -0.04194743 
C    0.14873007   2.94601650   1.19371930 
O    0.63098607   2.04332181   1.90832977 
H   -1.23651568   0.48196604   1.78496318 
C    3.06842349  -0.08761622  -1.02773253 
H    3.85114225  -0.68302950  -1.50930311 
H   -0.49081536   3.74391752   1.59114954 
*
