! EnGrad PBEh-3c
%output 
xyzfile=True 
end 
%scf 
maxiter 250 
end
%output
Print[P_Hirshfeld] = 1
end
% maxcore
4000
*xyz 0 1
C   -1.81650980   0.17570520  -0.22579766 
C   -1.70197618  -0.70633694  -1.30493848 
C   -1.05924989  -1.90917876  -1.16055880 
C   -0.43431673  -2.22746254   0.02456700 
C   -1.28739550  -0.13312521   1.10546789 
C   -0.50350090  -1.36274718   1.12296794 
H   -2.36939755   1.07805600  -0.36847782 
H   -2.19822726  -0.46346797  -2.23806935 
H   -1.06292985  -2.62464910  -1.97855649 
H    0.01147253  -1.63053185   2.02607532 
H    0.07164826  -3.17355900   0.13100375 
Pd   1.40267914   1.20696383   0.06125826 
O    2.56427484   0.83369060  -1.65561369 
O    2.60869431  -0.44636688   0.07913414 
O    0.33192566   2.90645147  -0.07759327 
C    0.15695219   2.95299596   1.26216466 
O    0.65274755   2.15880969   1.92983209 
H   -1.60971587   0.62849905   2.32353227 
C    3.01885007  -0.20085091  -1.08478706 
H    3.73576894  -0.85221521  -1.58399738 
H   -0.51298841   3.78757245   1.61132974 
*
