! EnGrad PBEh-3c
%output 
xyzfile=True 
end 
%scf 
maxiter 250 
end
%output
Print[P_Hirshfeld] = 1
end
% maxcore
4000
*xyz 0 1
C   -1.81294834   0.17208985  -0.22040914 
C   -1.69650283  -0.69661719  -1.30384111 
C   -1.04856683  -1.90457487  -1.16322961 
C   -0.42932550  -2.22064546   0.02981199 
C   -1.28082655  -0.17265473   1.05412228 
C   -0.50604658  -1.35973402   1.12328639 
H   -2.37723885   1.07422865  -0.36843631 
H   -2.18925043  -0.46175532  -2.23870231 
H   -1.04473879  -2.61385530  -1.98130836 
H    0.00681911  -1.63369213   2.02972206 
H    0.07888788  -3.16784976   0.12921218 
Pd   1.40146676   1.19582108   0.03643514 
O    2.56111017   0.82814438  -1.65471546 
O    2.61863492  -0.44917842   0.08465567 
O    0.32820152   2.90709184  -0.05420668 
C    0.14733642   2.97675485   1.23043705 
O    0.66187697   2.15072940   1.94571474 
H   -1.63481743   0.65741022   2.38038268 
C    2.99933188  -0.20961300  -1.09025241 
H    3.72697459  -0.85764131  -1.58393769 
H   -0.51098350   3.78464871   1.61472471 
*
