! EnGrad PBEh-3c
%output 
xyzfile=True 
end 
%scf 
maxiter 250 
end
%output
Print[P_Hirshfeld] = 1
end
% maxcore
4000
*xyz 0 1
C   -1.80337884   0.17745941  -0.16663675 
C   -1.73183929  -0.70877267  -1.27895854 
C   -1.10133616  -1.94187607  -1.15885899 
C   -0.46157227  -2.22251817   0.04030675 
C   -1.28868219  -0.08499672   1.15908523 
C   -0.53111706  -1.31156042   1.13349343 
H   -2.34482152   1.09957166  -0.38002005 
H   -2.23059671  -0.47312632  -2.22758908 
H   -1.13608362  -2.66362420  -1.96252629 
H    0.03435621  -1.62629884   2.01157878 
H    0.04193125  -3.19279139   0.13856804 
Pd   1.41978646   1.23210127   0.09486108 
O    2.59065508   0.85601488  -1.64229818 
O    2.59284778  -0.44207040   0.07093053 
O    0.34016348   2.89633885  -0.03615838 
C    0.13488114   2.97855574   1.19446316 
O    0.66412315   2.11292329   1.96008278 
H   -1.50894660   0.51423826   2.09534065 
C    3.04741751  -0.15734163  -1.07145450 
H    3.77703761  -0.82434782  -1.57641854 
H   -0.50934015   3.78003504   1.60030857 
*
