! EnGrad PBEh-3c
%output 
xyzfile=True 
end 
%scf 
maxiter 250 
end
%output
Print[P_Hirshfeld] = 1
end
% maxcore
4000
*xyz 0 1
C   -1.82520797   0.19022779  -0.14577576 
C   -1.77195548  -0.69523538  -1.20643422 
C   -1.16329965  -1.94147905  -1.11156379 
C   -0.50841268  -2.19389976   0.09097563 
C   -1.24754041  -0.20895680   0.97400757 
C   -0.54069081  -1.31139074   1.15206291 
H   -2.30768554   1.11592886  -0.36855082 
H   -2.25467898  -0.47129494  -2.16546407 
H   -1.22194537  -2.70125051  -1.93269715 
H    0.04024546  -1.60341066   1.99518092 
H   -0.00517364  -3.16433453   0.16693165 
Pd   1.47521996   1.24800700   0.09151904 
O    2.61184718   0.90739894  -1.61584281 
O    2.60045563  -0.42873880   0.08180644 
O    0.35957794   2.89711531  -0.03783933 
C    0.13759476   2.95793522   1.22853835 
O    0.63738252   2.10739184   1.93525789 
H   -1.39042676   0.43542554   1.88650047 
C    3.04675011  -0.13861141  -1.06082823 
H    3.81625834  -0.76287400  -1.54341876 
H   -0.49962762   3.76475177   1.58435533 
*
