! EnGrad PBEh-3c
%output 
xyzfile=True 
end 
%scf 
maxiter 250 
end
%output
Print[P_Hirshfeld] = 1
end
% maxcore
4000
*xyz 0 1
C   -1.82552142   0.18626110  -0.16653035 
C   -1.76854198  -0.70230397  -1.22878459 
C   -1.15434292  -1.94310445  -1.11926351 
C   -0.49926336  -2.20887124   0.07639998 
C   -1.25879677  -0.16246899   1.03929187 
C   -0.53228706  -1.32588709   1.14289042 
H   -2.31435321   1.11668487  -0.36819674 
H   -2.25174378  -0.47117452  -2.17494692 
H   -1.20921494  -2.69209951  -1.93324362 
H    0.04023552  -1.60582717   2.00162549 
H    0.00199712  -3.16920095   0.16305835 
Pd   1.46455932   1.24923950   0.09612240 
O    2.60822971   0.89720613  -1.61954393 
O    2.59843615  -0.43067569   0.07898170 
O    0.35677366   2.89761767  -0.03575648 
C    0.13619111   2.96424409   1.21131009 
O    0.64560189   2.10040592   1.94550536 
H   -1.40607769   0.44450948   1.91254337 
C    3.04995579  -0.13848522  -1.06190533 
H    3.81021345  -0.77271819  -1.54925355 
H   -0.50234220   3.76871889   1.58816602 
*
