! EnGrad PBEh-3c
%output 
xyzfile=True 
end 
%scf 
maxiter 250 
end
%output
Print[P_Hirshfeld] = 1
end
% maxcore
4000
*xyz 0 1
Lu  -0.15558966   0.14083571  -0.01357740 
C    0.42841577   0.79316551   2.48258314 
C    1.42921219  -0.17599808   2.18768607 
C    2.30683300   0.42358064   1.23859681 
C    1.81598294   1.70651450   0.93329648 
C    0.64131084   1.92353766   1.69244986 
H    2.31256797   2.42420529   0.30750542 
H    0.12823638   2.87997300   1.78782042 
H   -0.36553233   0.64205992   3.21151276 
H    1.59832755  -1.09273934   2.69167430 
H    3.25896003   0.03033890   0.93506776 
C    0.90647066  -0.07939540  -2.44323829 
C   -0.36875228  -0.70923432  -2.42821642 
C    1.06819735  -1.99865904  -1.18248732 
C    1.79265680  -0.88266828  -1.69391184 
H    1.18595798   0.78699158  -2.99825339 
C   -0.25107983  -1.88246186  -1.69037563 
H   -1.21479349  -0.39518113  -3.02695655 
H    2.84836929  -0.73085382  -1.62896968 
H    1.51403270  -2.85016726  -0.71992631 
H   -1.05451222  -2.59984597  -1.49235875 
C   -2.47581730  -1.38045039   1.19369148 
H   -2.21281300  -1.18731694   2.23833409 
H   -1.77407147  -2.24027642   0.86950389 
H   -3.54698403  -1.48140455   0.97163629 
C   -1.72435985   1.82484242  -0.85464271 
H   -2.25143725  -0.40433093   0.63466173 
H   -1.11693533   2.58987609  -1.36215340 
H   -2.35483882   2.45047997  -0.21281741 
H   -2.40180650   1.50856526  -1.65712031 
*
