! EnGrad PBEh-3c
%output 
xyzfile=True 
end 
%scf 
maxiter 250 
end
%output
Print[P_Hirshfeld] = 1
end
% maxcore
4000
*xyz 0 1
Lu   0.00072501   0.19731686  -0.06642695 
C    0.43182759   0.68874642   2.50183857 
C    1.39641984  -0.16769763   2.13135364 
C    2.26927888   0.40353451   1.21915809 
C    1.78837486   1.67915482   0.91927640 
C    0.55694918   1.89976606   1.67065178 
H    2.22697930   2.39196195   0.28309244 
H    0.10979497   2.78084675   1.80134715 
H   -0.36518353   0.57417324   3.20754052 
H    1.67172966  -1.11418853   2.69882107 
H    3.21835682   0.05303486   0.88798721 
C    0.87552691  -0.09874214  -2.38162009 
C   -0.42721602  -0.69732402  -2.38309422 
C    1.02952298  -1.94858923  -1.13488739 
C    1.74262405  -0.86660898  -1.66443754 
H    1.13056437   0.80066661  -2.94713753 
C   -0.23815686  -1.93642709  -1.62682614 
H   -1.22466839  -0.42102940  -2.93348787 
H    2.80877506  -0.68923602  -1.60017397 
H    1.54622717  -2.84308187  -0.72447643 
H   -1.04786652  -2.62526996  -1.43703006 
C   -2.42591987  -1.18980553   1.11988359 
H   -2.23706180  -1.04884898   2.19994733 
H   -1.65523660  -2.01804312   0.72966817 
H   -3.53380095  -1.63599567   0.98757184 
C   -1.70278421   1.79104564  -0.85648232 
H   -2.30953577  -0.32994612   0.55537074 
H   -0.97315895   2.51017025  -1.31868142 
H   -2.32405032   2.42454410  -0.19374899 
H   -2.35480511   1.50510721  -1.69612749 
*
