! EnGrad PBEh-3c
%output 
xyzfile=True 
end 
%scf 
maxiter 250 
end
%output
Print[P_Hirshfeld] = 1
end
% maxcore
4000
*xyz 0 1
Lu  -0.10735748   0.15826344  -0.02988456 
C    0.42946851   0.76094614   2.48852456 
C    1.41909384  -0.17343691   2.17030423 
C    2.29524536   0.41739524   1.23259884 
C    1.80746424   1.69807245   0.92897047 
C    0.61528036   1.91620274   1.68572388 
H    2.28615888   2.41425634   0.29997259 
H    0.12254613   2.84938678   1.79199421 
H   -0.36542470   0.62111293   3.21028709 
H    1.62097637  -1.09935766   2.69387950 
H    3.24643158   0.03734192   0.92054067 
C    0.89692271  -0.08536500  -2.42422549 
C   -0.38679175  -0.70555930  -2.41429359 
C    1.05626405  -1.98320959  -1.16779997 
C    1.77721878  -0.87771305  -1.68481730 
H    1.16886582   0.79121112  -2.98248117 
C   -0.24709234  -1.89911328  -1.67076691 
H   -1.21784047  -0.40315683  -2.99811602 
H    2.83615216  -0.71801230  -1.62008453 
H    1.52396657  -2.84798101  -0.72133028 
H   -1.05246163  -2.60769075  -1.47528663 
C   -2.46042104  -1.32162535   1.17091745 
H   -2.22029517  -1.14459151   2.22648954 
H   -1.73740399  -2.17170450   0.82635642 
H   -3.54291628  -1.52910492   0.97655333 
C   -1.71770251   1.81441414  -0.85521034 
H   -2.26936403  -0.38137888   0.61019584 
H   -1.07257194   2.56528219  -1.34873976 
H   -2.34533877   2.44247725  -0.20693369 
H   -2.38730384   1.50749825  -1.66915630 
*
