! EnGrad PBEh-3c
%output 
xyzfile=True 
end 
%scf 
maxiter 250 
end
%output
Print[P_Hirshfeld] = 1
end
% maxcore
4000
*xyz 0 1
Lu   0.04417449   0.22481590  -0.09385028 
C    0.40990302   0.74042681   2.48784481 
C    1.41058391  -0.18705511   2.14926630 
C    2.27222697   0.41750359   1.22663842 
C    1.78070547   1.68518527   0.94435845 
C    0.60543760   1.87575490   1.67636298 
H    2.25461891   2.40541099   0.28095381 
H    0.09947261   2.81663359   1.78625908 
H   -0.36507044   0.60256828   3.20843427 
H    1.63927783  -1.09835810   2.68626433 
H    3.21561295   0.03501262   0.89174549 
C    0.87056884  -0.09529496  -2.41255750 
C   -0.37749846  -0.71615164  -2.38386873 
C    1.05038555  -1.96079352  -1.14592663 
C    1.75597762  -0.87548539  -1.66987155 
H    1.14551695   0.80097106  -2.95951323 
C   -0.27097152  -1.91449917  -1.65408100 
H   -1.23765481  -0.40107781  -2.95880605 
H    2.81425673  -0.69934581  -1.59312907 
H    1.52286811  -2.83042254  -0.71351236 
H   -1.04377953  -2.61843814  -1.46574712 
C   -2.42161617  -1.25831934   1.13364385 
H   -2.25074138  -1.07872566   2.21865143 
H   -1.75139940  -2.04420258   0.76181802 
H   -3.49925599  -1.59643660   0.99746606 
C   -1.70964709   1.78330563  -0.84207994 
H   -2.26208974  -0.33425611   0.54783645 
H   -1.00353369   2.50180886  -1.31167662 
H   -2.33623127   2.40562275  -0.17161048 
H   -2.37498008   1.48152705  -1.67007603 
*
