! EnGrad PBEh-3c
%output 
xyzfile=True 
end 
%scf 
maxiter 250 
end
%output
Print[P_Hirshfeld] = 1
end
% maxcore
4000
*xyz 0 1
Lu   0.28833694   0.41461538  -0.26784133 
C    0.41881645   0.95453432   2.45897596 
C    1.34086921  -0.05584780   2.25158822 
C    2.37977464   0.44478644   1.34122304 
C    1.98618060   1.80937368   1.01333197 
C    0.76118901   2.12095443   1.72661359 
H    2.51273908   2.47033975   0.37821929 
H    0.20709816   2.98305926   1.63419948 
H   -0.35953337   0.95045067   3.21818189 
H    1.34988546  -1.03077317   2.65781607 
H    3.19983326  -0.07644233   1.00796816 
C    1.03666541  -0.10376388  -2.62697636 
C   -0.28642771  -0.68818148  -2.65474720 
C    1.01883346  -2.02120834  -1.31020652 
C    1.88665400  -0.94256564  -1.80257443 
H    1.32767668   0.78681950  -3.13019103 
C   -0.24922689  -1.82061304  -1.83773607 
H   -1.10894192  -0.28987262  -3.15327150 
H    2.89545447  -0.83399901  -1.59848004 
H    1.33979807  -2.78149358  -0.65494310 
H   -1.06148387  -2.55153120  -1.77931659 
C   -2.46824045  -1.57328006   1.34778706 
H   -2.36036769  -1.53594055   2.48610579 
H   -2.56392379  -2.77159521   1.11367874 
H   -3.41238502  -1.18294639   1.06498818 
C   -1.85289624   1.78062690  -0.75383898 
H   -1.71769830  -0.70537001   0.67445848 
H   -1.39562000   2.58460933  -1.35032606 
H   -2.51455182   2.34741531  -0.01315620 
H   -2.60920710   1.31345571  -1.44159549 
*
