! EnGrad PBEh-3c
%output 
xyzfile=True 
end 
%scf 
maxiter 250 
end
%output
Print[P_Hirshfeld] = 1
end
% maxcore
4000
*xyz 0 1
Lu   0.13554813   0.31996844  -0.19828277 
C    0.37696722   0.92576405   2.43069611 
C    1.39622961  -0.05906270   2.25152807 
C    2.34114818   0.46244293   1.34978036 
C    1.92565270   1.76995612   0.98006874 
C    0.79883544   2.09431404   1.77479783 
H    2.50007004   2.48310171   0.35671692 
H    0.17227951   3.00227445   1.65721682 
H   -0.35524953   0.89606008   3.21769495 
H    1.38722054  -1.06426482   2.67030024 
H    3.25803986  -0.08023709   0.98588936 
C    1.00158303  -0.10198888  -2.57058299 
C   -0.26600325  -0.71717064  -2.65763820 
C    1.05875456  -2.02971592  -1.34195495 
C    1.83323606  -0.93348731  -1.77805998 
H    1.31423017   0.80031930  -3.12521570 
C   -0.28560925  -1.80660251  -1.76397618 
H   -1.14918431  -0.29853601  -3.14864756 
H    2.93530967  -0.81573796  -1.60516750 
H    1.37530332  -2.81026712  -0.64965864 
H   -1.05258641  -2.55297233  -1.73231502 
C   -2.33257921  -1.44562442   1.23942952 
H   -2.33849857  -1.51539777   2.42274177 
H   -2.45107413  -2.70648351   1.12035899 
H   -3.43452149  -1.21382694   1.03836456 
C   -1.80978748   1.77907290  -0.76718432 
H   -1.93291085  -0.73470515   0.75166750 
H   -1.36598178   2.61293254  -1.36660608 
H   -2.48440071   2.37724254  -0.06162412 
H   -2.57262686   1.35660253  -1.48183324 
*
