! EnGrad PBEh-3c
%output 
xyzfile=True 
end 
%scf 
maxiter 250 
end
%output
Print[P_Hirshfeld] = 1
end
% maxcore
4000
*xyz 0 1
Lu   0.23319896   0.38045947  -0.24273924 
C    0.40371402   0.94415179   2.44877041 
C    1.36084751  -0.05700799   2.25156651 
C    2.36583523   0.45115826   1.34431118 
C    1.96433746   1.79514879   1.00132803 
C    0.77477474   2.11134052   1.74400217 
H    2.50816711   2.47494525   0.37045958 
H    0.19453291   2.98999358   1.64250591 
H   -0.35798743   0.93082235   3.21800617 
H    1.36335884  -1.04285954   2.66232132 
H    3.22083869  -0.07781177   1.00000043 
C    1.02400499  -0.10312332  -2.60662529 
C   -0.27905699  -0.69864300  -2.65579050 
C    1.03324007  -2.02427853  -1.32166380 
C    1.86737669  -0.93928948  -1.79372773 
H    1.32282414   0.79169127  -3.12839555 
C   -0.26235645  -1.81555696  -1.81111781 
H   -1.12346447  -0.29299904  -3.15160283 
H    2.90983730  -0.82740901  -1.60089339 
H    1.35261110  -2.79187729  -0.65303606 
H   -1.05827298  -2.55205127  -1.76235480 
C   -2.41928342  -1.52721206   1.30868330 
H   -2.35247563  -1.52852713   2.46323917 
H   -2.52319893  -2.74809789   1.11608949 
H   -3.42037357  -1.19409047   1.05538032 
C   -1.83733928   1.78006609  -0.75865501 
H   -1.79536358  -0.71595639   0.70232145 
H   -1.38492425   2.59483052  -1.35620115 
H   -2.50367097   2.35817928  -0.03064716 
H   -2.59600613   1.32902641  -1.45611637 
*
