! EnGrad PBEh-3c
%output 
xyzfile=True 
end 
%scf 
maxiter 250 
end
%output
Print[P_Hirshfeld] = 1
end
% maxcore
4000
*xyz 0 1
Lu   0.12673473   0.31466692  -0.18832362 
C    0.38525283   0.92763927   2.44437836 
C    1.41048587  -0.05715004   2.23078825 
C    2.32436886   0.46484678   1.35020202 
C    1.92378237   1.76307097   0.98988034 
C    0.79580536   2.07323714   1.75502783 
H    2.48959728   2.47959936   0.35532566 
H    0.16904133   2.99794218   1.66477108 
H   -0.35732235   0.88451879   3.21772040 
H    1.39498533  -1.06907550   2.67487072 
H    3.25637266  -0.07370067   0.98546740 
C    0.99909708  -0.11069770  -2.56733768 
C   -0.25840971  -0.70419287  -2.63468203 
C    1.06873754  -2.00559122  -1.33470610 
C    1.81785877  -0.94034083  -1.77697622 
H    1.30648770   0.79853990  -3.11775322 
C   -0.28180598  -1.82346558  -1.77327097 
H   -1.15553837  -0.30371090  -3.14592377 
H    2.92875636  -0.81260171  -1.60717992 
H    1.38104160  -2.81727651  -0.65128853 
H   -1.05442862  -2.55444944  -1.71985937 
C   -2.36688781  -1.48921511   1.26534205 
H   -2.32974447  -1.49498305   2.38664626 
H   -2.41709293  -2.65296972   1.11191837 
H   -3.42627546  -1.22291375   1.03529166 
C   -1.82610849   1.79023966  -0.77024339 
H   -1.93882892  -0.71908127   0.74553971 
H   -1.35556580   2.60971297  -1.36511986 
H   -2.47179640   2.37528035  -0.07835411 
H   -2.55969022   1.36824613  -1.48499122 
*
