! EnGrad PBEh-3c
%output 
xyzfile=True 
end 
%scf 
maxiter 250 
end
%output
Print[P_Hirshfeld] = 1
end
% maxcore
4000
*xyz 0 1
Lu   0.05581897   0.27427862  -0.15206356 
C    0.38662241   0.90683578   2.44135657 
C    1.41668868  -0.07238741   2.23565193 
C    2.33424564   0.45677851   1.33363422 
C    1.90871488   1.75832719   0.96938273 
C    0.78135504   2.06940083   1.75957940 
H    2.47025315   2.47409908   0.35150378 
H    0.16289996   2.98913718   1.68166998 
H   -0.36024615   0.85265373   3.21873664 
H    1.41966052  -1.07660482   2.67828018 
H    3.26263732  -0.06052602   0.98166068 
C    0.98805854  -0.09847943  -2.55157117 
C   -0.27478626  -0.70714084  -2.62154121 
C    1.07230591  -2.01679021  -1.32395092 
C    1.82472847  -0.92915610  -1.76339527 
H    1.29285293   0.79508773  -3.10486803 
C   -0.27687055  -1.82236796  -1.75242784 
H   -1.16533987  -0.31510621  -3.13605550 
H    2.92186836  -0.80395473  -1.61365813 
H    1.39987097  -2.82541071  -0.65817923 
H   -1.05737213  -2.56067662  -1.68941347 
C   -2.37542813  -1.50360905   1.26510771 
H   -2.31131840  -1.46523048   2.33511218 
H   -2.33769662  -2.57979006   1.10050313 
H   -3.42593048  -1.24545503   1.02416197 
C   -1.81202352   1.79874275  -0.78161871 
H   -2.00572060  -0.68913277   0.74851251 
H   -1.33495336   2.61519837  -1.36863283 
H   -2.45092432   2.38633536  -0.10676597 
H   -2.53566872   1.39281069  -1.50565730 
*
