! EnGrad PBEh-3c
%output 
xyzfile=True 
end 
%scf 
maxiter 250 
end
%output
Print[P_Hirshfeld] = 1
end
% maxcore
4000
*xyz 0 1
Lu  -0.13264446   0.16393893  -0.04730127 
C    0.40373617   0.84127016   2.45367068 
C    1.43797817  -0.10966755   2.22500289 
C    2.34309796   0.43262061   1.28657244 
C    1.85911265   1.73580374   0.93289461 
C    0.72787194   2.03694786   1.74321752 
H    2.40335994   2.45477359   0.33513208 
H    0.14681274   2.94906869   1.73692015 
H   -0.36591207   0.75035820   3.21731057 
H    1.50125052  -1.09788028   2.69028703 
H    3.27238477  -0.01546886   0.96810384 
C    0.94943118  -0.08372652  -2.49691550 
C   -0.32049245  -0.70251185  -2.55640562 
C    1.08423356  -2.01804918  -1.28060752 
C    1.82609271  -0.90442522  -1.72489738 
H    1.24682930   0.78978046  -3.06123322 
C   -0.26368203  -1.84551345  -1.70603614 
H   -1.19254475  -0.35472116  -3.09697165 
H    2.89177911  -0.77438170  -1.63060873 
H    1.45950874  -2.85122004  -0.68209179 
H   -1.05872461  -2.57455529  -1.59115915 
C   -2.44004034  -1.49297376   1.24264453 
H   -2.25332398  -1.35683653   2.24427377 
H   -2.07686573  -2.42169026   1.03067619 
H   -3.43541069  -1.33307351   0.99556132 
C   -1.76072808   1.82561672  -0.82470662 
H   -2.16603690  -0.54782181   0.71610910 
H   -1.25821806   2.62018043  -1.37305971 
H   -2.39799388   2.42728768  -0.18112242 
H   -2.46700143   1.46471590  -1.57756854 
*
