! EnGrad PBEh-3c
%output 
xyzfile=True 
end 
%scf 
maxiter 250 
end
%output
Print[P_Hirshfeld] = 1
end
% maxcore
4000
*xyz 0 1
Lu  -0.18038878   0.13552296  -0.01450707 
C    0.42064883   0.82116858   2.46506239 
C    1.43337456  -0.14824705   2.21851598 
C    2.33295836   0.43224951   1.25753904 
C    1.84332106   1.72443959   0.92637328 
C    0.68619983   1.98365979   1.72315947 
H    2.36074804   2.43920687   0.32519530 
H    0.13817583   2.92287416   1.76412392 
H   -0.36659417   0.69612924   3.21488615 
H    1.54779664  -1.09374518   2.69043572 
H    3.27133554   0.00746452   0.95588003 
C    0.93450540  -0.07481245  -2.47369537 
C   -0.34939757  -0.70881152  -2.49568902 
C    1.07480525  -2.02294127  -1.23188106 
C    1.81697350  -0.88763411  -1.71315347 
H    1.21826903   0.78429151  -3.03101878 
C   -0.24781605  -1.85475052  -1.70074125 
H   -1.20291975  -0.37502891  -3.06872404 
H    2.87262263  -0.75544918  -1.63393041 
H    1.48751277  -2.85188043  -0.70306221 
H   -1.06038796  -2.58766615  -1.54012095 
C   -2.46907297  -1.42866396   1.22555395 
H   -2.22416195  -1.27975360   2.24604247 
H   -1.90865891  -2.37415664   0.95473653 
H   -3.50338648  -1.39338419   0.97638544 
C   -1.74262363   1.82704608  -0.84131049 
H   -2.21549099  -0.47576229   0.68314025 
H   -1.19718549   2.61829483  -1.37526791 
H   -2.37562081   2.44510985  -0.20505720 
H   -2.43367760   1.49306119  -1.61735711 
*
