! EnGrad PBEh-3c
%output 
xyzfile=True 
end 
%scf 
maxiter 250 
end
%output
Print[P_Hirshfeld] = 1
end
% maxcore
4000
*xyz 0 1
Lu  -0.19023901   0.12364245   0.00734045 
C    0.44053069   0.76203675   2.50525756 
C    1.41986124  -0.16508099   2.16881122 
C    2.30324256   0.41575167   1.22762158 
C    1.81307851   1.69570896   0.93264464 
C    0.61006155   1.92092746   1.67247189 
H    2.29291102   2.41852485   0.30229119 
H    0.13189309   2.85831857   1.80321509 
H   -0.36233675   0.61735840   3.20488295 
H    1.62356081  -1.10440233   2.69976025 
H    3.25855989   0.04483852   0.93081328 
C    0.89902067  -0.08858059  -2.42352098 
C   -0.38622138  -0.69237208  -2.40642202 
C    1.05779643  -1.97709298  -1.16762382 
C    1.78335174  -0.87904650  -1.68998148 
H    1.17463611   0.79021113  -2.98852484 
C   -0.24707520  -1.91389136  -1.68102569 
H   -1.21427004  -0.40916871  -3.01182819 
H    2.84209226  -0.72121404  -1.63266802 
H    1.53339301  -2.86218738  -0.72597576 
H   -1.04903127  -2.59750016  -1.46766196 
C   -2.48091817  -1.39165270   1.19249608 
H   -2.19225056  -1.14558989   2.25147568 
H   -1.68354834  -2.20786909   0.83293980 
H   -3.61363312  -1.50844334   0.95569676 
C   -1.71319682   1.82766743  -0.86440099 
H   -2.26838816  -0.35522483   0.61348507 
H   -1.08862362   2.59500131  -1.36755512 
H   -2.34434824   2.46323957  -0.22603072 
H   -2.38612060   1.52417835  -1.67967579 
*
