! EnGrad PBEh-3c
%output 
xyzfile=True 
end 
%scf 
maxiter 250 
end
%output
Print[P_Hirshfeld] = 1
end
% maxcore
4000
*xyz 0 1
Lu  -0.18345437   0.13182550  -0.00770768 
C    0.42683647   0.80276555   2.47757195 
C    1.42916894  -0.15348612   2.20304685 
C    2.32371019   0.42711505   1.24822812 
C    1.83390896   1.71549804   0.92832506 
C    0.66250405   1.96413621   1.70738447 
H    2.33963577   2.43277020   0.31806707 
H    0.13622051   2.90278315   1.77628989 
H   -0.36526917   0.67161415   3.21177295 
H    1.57137600  -1.09706191   2.69333770 
H    3.26735950   0.01909607   0.94807875 
C    0.92346183  -0.07909738  -2.45808008 
C   -0.36085789  -0.70369523  -2.46790731 
C    1.06951175  -2.00867235  -1.21188290 
C    1.80650973  -0.88496147  -1.70594187 
H    1.20468958   0.78613382  -3.01779380 
C   -0.24758548  -1.87315635  -1.69460536 
H   -1.20645219  -0.38565391  -3.05101689 
H    2.86312095  -0.74479451  -1.63353753 
H    1.50179163  -2.85508816  -0.71019337 
H   -1.05685353  -2.59072669  -1.51757023 
C   -2.47275943  -1.41714530   1.21526567 
H   -2.21423047  -1.23799912   2.24773340 
H   -1.83859991  -2.32240457   0.91683090 
H   -3.53769748  -1.42919294   0.96994670 
C   -1.73346541   1.82723946  -0.84849673 
H   -2.23195367  -0.43824857   0.66146214 
H   -1.16339882   2.61104541  -1.37286753 
H   -2.36588815   2.45075219  -0.21158459 
H   -2.41887689   1.50274548  -1.63675195 
*
