! EnGrad PBEh-3c
%output 
xyzfile=True 
end 
%scf 
maxiter 250 
end
%output
Print[P_Hirshfeld] = 1
end
% maxcore
4000
*xyz 0 1
Pd   0.43023937   0.10572259  -0.26519975 
O    1.95123984   1.36731678   0.62260850 
C    1.77272542   2.56023200   0.37706120 
O    0.65032832   2.95592614  -0.13360248 
C    2.78809239   3.63024863   0.63631343 
H    2.37470098   4.54270812   1.06502530 
H    3.24695613   3.91642968  -0.31263870 
H    3.56525998   3.24923554   1.29243127 
N   -1.35684774  -0.79209487  -0.95041232 
C   -1.19049152  -2.01825232  -1.75781868 
H   -0.55434216  -1.88509717  -2.62600668 
H   -2.11887287  -2.39273915  -2.21512342 
H   -0.74053003  -2.79857942  -1.14811795 
C   -1.98093595   0.15164534  -1.89360083 
H   -2.09851622   1.12411540  -1.42893316 
H   -2.97557002  -0.17697610  -2.22361297 
H   -1.39284455   0.28931396  -2.79576501 
C   -1.59615514  -1.15301576   1.44069861 
C   -1.63372857  -2.21480939   2.34257630 
C   -1.37799644  -2.04781187   3.69576232 
C   -0.98222751  -0.81230310   4.16914932 
C   -1.12317522   0.28744877   3.33363617 
C   -1.36790213   0.11425546   1.97963236 
H   -0.79372210  -0.66531567   5.22539903 
H   -1.03072656   1.25914359   3.80427868 
H   -2.17191681  -3.12497831   2.10050126 
H   -1.53793224  -2.85869152   4.39330252 
H   -1.53721773   3.73985728   1.13250172 
C   -2.33108111  -1.12992949   0.12531204 
H   -3.17374228  -0.42530521   0.18032121 
H   -2.87406339  -2.07997521   0.02062539 
O    1.61627800   0.35920162  -1.89878975 
C    2.29997901  -0.57928969  -2.43810090 
O    1.98437636  -1.74958951  -2.32164886 
C    3.55136201  -0.25493614  -3.23523017 
H    4.03855844  -1.10362997  -3.71907189 
H    4.30859479   0.13658919  -2.55082377 
H    3.36184156   0.47392979  -4.02262504 
*
