! EnGrad PBEh-3c
%output 
xyzfile=True 
end 
%scf 
maxiter 250 
end
%output
Print[P_Hirshfeld] = 1
end
% maxcore
4000
*xyz 0 1
Pd   0.33468433   0.34633170  -0.19973990 
O    1.85211424   1.27864796   0.57571519 
C    1.59964429   2.64446816   0.32260037 
O    0.54154211   2.98585073  -0.14833822 
C    2.76904572   3.54220619   0.64353598 
H    2.31856835   4.41959769   1.05632782 
H    3.21795789   3.82618013  -0.28568362 
H    3.54911845   3.19226049   1.29303466 
N   -1.34460008  -0.79118532  -1.02255188 
C   -1.13415243  -2.03334826  -1.77740887 
H   -0.46802589  -1.84104841  -2.59086375 
H   -2.11586130  -2.40008948  -2.10847998 
H   -0.70653211  -2.82344834  -1.18840509 
C   -2.00376180   0.19722794  -1.88538273 
H   -2.11948809   1.14166186  -1.37875137 
H   -2.98746347  -0.14217727  -2.21832873 
H   -1.36450595   0.33442109  -2.74146902 
C   -1.74137463  -1.02701628   1.51232490 
C   -1.81289753  -2.15391834   2.35680219 
C   -1.42623052  -2.01275069   3.68476837 
C   -1.08492393  -0.73875453   4.18199734 
C   -0.98666213   0.37922440   3.33153336 
C   -1.14164269   0.12044467   1.98587294 
H   -0.84014709  -0.64129012   5.25214025 
H   -0.83854451   1.37764072   3.73318931 
H   -2.01413392  -3.14736116   1.92548309 
H   -1.36749966  -2.89068466   4.33264462 
H   -1.43217609   3.26863049   1.14649358 
C   -2.28878086  -1.11224034   0.14037376 
H   -3.08582079  -0.35983664   0.07531393 
H   -2.70741967  -2.10070113  -0.10449388 
O    1.67134560   0.32559405  -1.79685402 
C    2.23858591  -0.67261614  -2.43912903 
O    1.84079898  -1.82191438  -2.51179983 
C    3.53764276  -0.24964442  -3.15926136 
H    3.92605548  -1.15559265  -3.61004602 
H    4.24583412   0.18832397  -2.47868757 
H    3.38329710   0.50524270  -3.91559273 
*
