! EnGrad PBEh-3c
%output 
xyzfile=True 
end 
%scf 
maxiter 250 
end
%output
Print[P_Hirshfeld] = 1
end
% maxcore
4000
*xyz 0 1
Pd   0.45311904   0.26630889  -0.20526404 
O    1.87989027   1.34771601   0.57783660 
C    1.69483695   2.55222747   0.35202421 
O    0.61652696   2.95443069  -0.13405252 
C    2.76641252   3.57211411   0.63904172 
H    2.35736616   4.50151224   1.06098054 
H    3.24434756   3.89194515  -0.30265004 
H    3.58196790   3.24338547   1.29940368 
N   -1.36377254  -0.79896445  -0.96675328 
C   -1.17474306  -2.04150349  -1.78103492 
H   -0.49601203  -1.85725412  -2.62461504 
H   -2.14952985  -2.40773545  -2.17070822 
H   -0.72657691  -2.82221963  -1.15546752 
C   -1.99995728   0.17096666  -1.89598934 
H   -2.10361013   1.14322564  -1.40280642 
H   -3.00117978  -0.17011338  -2.22717781 
H   -1.36977606   0.30271323  -2.78073503 
C   -1.70091767  -1.10379523   1.48096867 
C   -1.72336795  -2.19451561   2.35542768 
C   -1.36818329  -2.03955523   3.69025144 
C   -1.04588065  -0.79445005   4.18601857 
C   -1.05638552   0.32986146   3.35048924 
C   -1.25344939   0.12015496   1.99685657 
H   -0.80446719  -0.65580690   5.22161187 
H   -0.97378345   1.32595506   3.77929930 
H   -2.11016391  -3.15438459   2.02159405 
H   -1.48001002  -2.87662231   4.37203386 
H   -1.50375202   3.59426178   1.13590807 
C   -2.31594261  -1.13026081   0.10545881 
H   -3.11587700  -0.39445480   0.15257425 
H   -2.80441422  -2.10421141  -0.03568055 
O    1.64781207   0.34675564  -1.88859235 
C    2.27155789  -0.63082756  -2.44135897 
O    1.93774532  -1.79692750  -2.37855592 
C    3.53608954  -0.25012080  -3.20349559 
H    3.97968373  -1.12765488  -3.67389512 
H    4.29961509   0.17436876  -2.52956034 
H    3.37682647   0.50109581  -3.98812512 
*
