! EnGrad PBEh-3c
%output 
xyzfile=True 
end 
%scf 
maxiter 250 
end
%output
Print[P_Hirshfeld] = 1
end
% maxcore
4000
*xyz 0 1
Pd   0.37402709   0.34124272  -0.19919674 
O    1.85681290   1.29418712   0.57026691 
C    1.62720314   2.61823926   0.32926174 
O    0.55582991   2.97575749  -0.14594322 
C    2.77761642   3.54914789   0.64535087 
H    2.33090238   4.43520970   1.05462765 
H    3.22269997   3.84239013  -0.28318810 
H    3.55771862   3.21292825   1.29083134 
N   -1.34262694  -0.79294028  -1.00964785 
C   -1.14196838  -2.03655672  -1.77836339 
H   -0.47221978  -1.84503166  -2.59828551 
H   -2.13276912  -2.40796921  -2.12555741 
H   -0.71482657  -2.82528613  -1.18169410 
C   -2.00400830   0.19103288  -1.88597951 
H   -2.11402395   1.13990455  -1.38725510 
H   -2.99653226  -0.14963836  -2.22355730 
H   -1.36451654   0.32337884  -2.75099371 
C   -1.74008255  -1.04311338   1.50424181 
C   -1.79667087  -2.16457902   2.35752703 
C   -1.41120822  -2.02384646   3.68523170 
C   -1.07608917  -0.75469662   4.18340281 
C   -1.00442709   0.36992702   3.33721263 
C   -1.16435886   0.11428491   1.99215996 
H   -0.82828521  -0.64565270   5.24689067 
H   -0.87854997   1.37070835   3.74755667 
H   -2.03973704  -3.15759136   1.94737832 
H   -1.39801336  -2.89052381   4.34468653 
H   -1.45328306   3.37027160   1.14284441 
C   -2.29635749  -1.12039582   0.13628521 
H   -3.09046441  -0.36460930   0.09727564 
H   -2.73342005  -2.10729327  -0.09053906 
O    1.66458863   0.33440090  -1.82678327 
C    2.25116253  -0.66575990  -2.44150686 
O    1.87146715  -1.82365150  -2.46347283 
C    3.53923231  -0.24430356  -3.17279383 
H    3.93370776  -1.14724921  -3.62726948 
H    4.25919325   0.18862973  -2.49986876 
H    3.38138999   0.50582053  -3.93307216 
*
