! EnGrad PBEh-3c
%output 
xyzfile=True 
end 
%scf 
maxiter 250 
end
%output
Print[P_Hirshfeld] = 1
end
% maxcore
4000
*xyz 0 1
Pd   0.37669410   0.32716377  -0.20055253 
O    1.86086791   1.29257039   0.57487417 
C    1.63557427   2.62119904   0.33259612 
O    0.55937320   2.97567294  -0.14624397 
C    2.77270969   3.55039561   0.64340348 
H    2.33187994   4.44373549   1.05662344 
H    3.22536355   3.84699652  -0.28796073 
H    3.55925834   3.21235552   1.29300426 
N   -1.34749545  -0.79376032  -1.00680287 
C   -1.14511911  -2.03675642  -1.77806142 
H   -0.47603884  -1.84616011  -2.60097321 
H   -2.13062308  -2.40511406  -2.12909875 
H   -0.71464383  -2.82361277  -1.17891137 
C   -2.00312399   0.18998621  -1.88709416 
H   -2.11374333   1.14065963  -1.38788115 
H   -2.99431009  -0.15141746  -2.22246766 
H   -1.36552918   0.32285282  -2.75396042 
C   -1.73235672  -1.04852174   1.50104493 
C   -1.78703189  -2.16827980   2.35735936 
C   -1.40750346  -2.02364420   3.68608787 
C   -1.07282510  -0.75764726   4.18350877 
C   -1.00922655   0.36552100   3.33710656 
C   -1.17517414   0.11697857   1.99132652 
H   -0.82738681  -0.64622109   5.24374116 
H   -0.88453453   1.36344873   3.74919776 
H   -2.04540997  -3.15295534   1.95545120 
H   -1.40450051  -2.88745755   4.34606004 
H   -1.45649435   3.38149324   1.14269329 
C   -2.29787466  -1.12019322   0.13304058 
H   -3.09433416  -0.36907244   0.10115547 
H   -2.73921365  -2.10422531  -0.08406364 
O    1.66263978   0.33512372  -1.82827474 
C    2.25216756  -0.66139211  -2.44161885 
O    1.87408562  -1.81816751  -2.46274784 
C    3.53849952  -0.24644831  -3.17441837 
H    3.94076014  -1.14633021  -3.63102471 
H    4.26260541   0.18521392  -2.49888748 
H    3.38123065   0.50424163  -3.93819365 
*
