! EnGrad PBEh-3c
%output 
xyzfile=True 
end 
%scf 
maxiter 250 
end
%output
Print[P_Hirshfeld] = 1
end
% maxcore
4000
*xyz 0 1
Pd   0.44090973   0.28326089  -0.20336991 
O    1.87537221   1.32341070   0.57694151 
C    1.69182065   2.57875145   0.34951618 
O    0.59649652   2.95943045  -0.13999696 
C    2.76926195   3.56424633   0.64042810 
H    2.35252449   4.48888989   1.05957709 
H    3.23985848   3.88267750  -0.29772945 
H    3.57696218   3.23968685   1.29664871 
N   -1.35767472  -0.79741296  -0.97597815 
C   -1.16682777  -2.04118931  -1.77955678 
H   -0.49098038  -1.85480981  -2.61967442 
H   -2.14906610  -2.40928183  -2.16294104 
H   -0.72529863  -2.82281175  -1.16105065 
C   -2.00098089   0.17619980  -1.89226895 
H   -2.10521194   1.14135357  -1.40084382 
H   -3.00199905  -0.16659839  -2.22736682 
H   -1.36818065   0.30599359  -2.77561042 
C   -1.71038494  -1.08948706   1.48285396 
C   -1.73840481  -2.19128087   2.35702789 
C   -1.37601822  -2.03791246   3.68934969 
C   -1.05170095  -0.78820714   4.18614513 
C   -1.04682950   0.33907397   3.34718712 
C   -1.23567931   0.11728027   1.99715833 
H   -0.80833331  -0.65393682   5.22684620 
H   -0.95720127   1.33541371   3.77402567 
H   -2.09706696  -3.15586244   2.00754867 
H   -1.46511425  -2.87939881   4.36699542 
H   -1.49499551   3.55593419   1.13707470 
C   -2.31277368  -1.13005611   0.11385301 
H   -3.11061181  -0.38796622   0.14285138 
H   -2.79146677  -2.10579727  -0.04661476 
O    1.64952128   0.34671972  -1.87687261 
C    2.27068414  -0.63909970  -2.44369371 
O    1.92568782  -1.80423250  -2.39160441 
C    3.53705432  -0.24669086  -3.19782241 
H    3.97013424  -1.13156905  -3.66547333 
H    4.29172211   0.17746411  -2.52578944 
H    3.37790188   0.50183484  -3.97738011 
*
