! EnGrad PBEh-3c
%output 
xyzfile=True 
end 
%scf 
maxiter 250 
end
%output
Print[P_Hirshfeld] = 1
end
% maxcore
4000
*xyz 0 1
Pd   0.42454448   0.29809077  -0.20221229 
O    1.87280838   1.30702084   0.57653974 
C    1.67992776   2.59719247   0.34550133 
O    0.58104066   2.96439625  -0.14410270 
C    2.77399008   3.56013330   0.64216110 
H    2.34711682   4.47516580   1.05807304 
H    3.23503353   3.87255609  -0.29315960 
H    3.57131234   3.23420383   1.29419388 
N   -1.35343042  -0.79706291  -0.98782564 
C   -1.15899215  -2.04062904  -1.77861139 
H   -0.48702926  -1.85243503  -2.61363984 
H   -2.14570164  -2.40905046  -2.15384076 
H   -0.72349057  -2.82285224  -1.16687060 
C   -2.00192251   0.18140727  -1.88960983 
H   -2.10724721   1.13997890  -1.39830640 
H   -3.00061305  -0.16261358  -2.22642074 
H   -1.36722813   0.30979352  -2.76941208 
C   -1.71805838  -1.07529299   1.48680027 
C   -1.75306866  -2.18620790   2.35787971 
C   -1.38475659  -2.03554907   3.68802561 
C   -1.05763916  -0.78015242   4.18523596 
C   -1.03682337   0.34792195   3.34319573 
C   -1.21825718   0.11467072   1.99687426 
H   -0.81280277  -0.65198134   5.23270162 
H   -0.93864378   1.34370431   3.76778356 
H   -2.08310997  -3.15651770   1.99305911 
H   -1.44897497  -2.88217108   4.36163435 
H   -1.48513219   3.51233071   1.13841538 
C   -2.30876180  -1.12885353   0.12312349 
H   -3.10590523  -0.38177458   0.13185025 
H   -2.77755299  -2.10638653  -0.05787804 
O    1.65193769   0.34604464  -1.86378056 
C    2.26771785  -0.64655006  -2.44442890 
O    1.91228451  -1.81094662  -2.40822100 
C    3.53903230  -0.24412936  -3.19205546 
H    3.96095353  -1.13559372  -3.65628420 
H    4.28302980   0.17985985  -2.52062154 
H    3.37886106   0.50224837  -3.96601201 
*
