! EnGrad PBEh-3c
%output 
xyzfile=True 
end 
%scf 
maxiter 250 
end
%output
Print[P_Hirshfeld] = 1
end
% maxcore
4000
*xyz 0 1
Pd   0.44080268   0.16124427  -0.23097487 
O    1.96693096   1.27752676   0.62927216 
C    1.63666059   2.65213757   0.32473840 
O    0.70494847   2.93137039  -0.10881836 
C    2.81158282   3.61745144   0.64375889 
H    2.36565914   4.53595235   1.06398505 
H    3.24706979   3.91445070  -0.31200501 
H    3.57260500   3.25515126   1.29372775 
N   -1.38551428  -0.81995970  -1.01360348 
C   -1.17218185  -2.04483611  -1.76935777 
H   -0.54375197  -1.87229270  -2.61926192 
H   -2.12748980  -2.38457059  -2.19503677 
H   -0.74053977  -2.79904308  -1.15146120 
C   -1.99364536   0.17936233  -1.89369734 
H   -2.09971091   1.12995652  -1.42335988 
H   -2.97280910  -0.18152456  -2.21615701 
H   -1.38375397   0.28850474  -2.79057794 
C   -1.63575078  -1.10856323   1.45427935 
C   -1.66081216  -2.22825047   2.35713448 
C   -1.35717917  -2.05075922   3.68621091 
C   -1.01300210  -0.81086912   4.17350055 
C   -1.10226178   0.31330257   3.32361161 
C   -1.33742585   0.10293908   1.99689079 
H   -0.79134584  -0.66328641   5.22460888 
H   -1.02617183   1.26310091   3.79444523 
H   -2.15530752  -3.13089018   2.08383062 
H   -1.53064633  -2.86307120   4.38939181 
H   -1.52922909   3.71499487   1.13169974 
C   -2.32320797  -1.14153327   0.15339395 
H   -3.15485002  -0.41727327   0.17806369 
H   -2.85481195  -2.08476047   0.00083677 
O    1.61549599   0.38897875  -1.89316629 
C    2.28834387  -0.64131226  -2.44207793 
O    1.97734273  -1.75606526  -2.34466158 
C    3.56379491  -0.23556065  -3.23116377 
H    4.02334931  -1.11579596  -3.70645711 
H    4.30659950   0.14361959  -2.54913250 
H    3.36987526   0.47967355  -4.01470995 
*
