! EnGrad PBEh-3c
%output 
xyzfile=True 
end 
%scf 
maxiter 250 
end
%output
Print[P_Hirshfeld] = 1
end
% maxcore
4000
*xyz 0 1
Pd   0.44614521   0.16853725  -0.22694614 
O    1.95947494   1.28205489   0.62519863 
C    1.70573017   2.62189166   0.35763119 
O    0.63698790   2.95302747  -0.14092167 
C    2.80586144   3.61903821   0.64174916 
H    2.36619151   4.53433634   1.06354183 
H    3.24757782   3.91406486  -0.31182555 
H    3.57479874   3.25367414   1.29565239 
N   -1.38749460  -0.82060080  -1.01190367 
C   -1.17474223  -2.04502695  -1.77288837 
H   -0.54138753  -1.87065108  -2.62027071 
H   -2.12837373  -2.38489965  -2.19271469 
H   -0.73883526  -2.80112320  -1.15061390 
C   -1.99470510   0.17733566  -1.89640400 
H   -2.10016077   1.13321993  -1.42050116 
H   -2.97376308  -0.18087401  -2.21580166 
H   -1.38319332   0.28949739  -2.78930701 
C   -1.64028265  -1.11160864   1.45945084 
C   -1.66242719  -2.22174737   2.35527645 
C   -1.35599475  -2.05307865   3.68708670 
C   -1.01603827  -0.80635315   4.17222420 
C   -1.09963280   0.31178244   3.32660324 
C   -1.33332403   0.10495148   1.99929104 
H   -0.79139176  -0.66294431   5.22429317 
H   -1.02482694   1.26679104   3.79393073 
H   -2.15337661  -3.13416273   2.08030762 
H   -1.52838966  -2.86317821   4.38825982 
H   -1.52991370   3.70983179   1.13242244 
C   -2.32361869  -1.14056466   0.14841820 
H   -3.15190637  -0.41698998   0.17756330 
H   -2.85180501  -2.08623734  -0.00072075 
O    1.61929302   0.38385186  -1.89399404 
C    2.28957494  -0.62164275  -2.44288769 
O    1.96938577  -1.77365748  -2.35033956 
C    3.56332924  -0.23907620  -3.22937952 
H    4.02168987  -1.11670312  -3.70359085 
H    4.30764322   0.14513745  -2.54665475 
H    3.37157826   0.48126368  -4.01394270 
*
