! EnGrad PBEh-3c
%output 
xyzfile=True 
end 
%scf 
maxiter 250 
end
%output
Print[P_Hirshfeld] = 1
end
% maxcore
4000
*xyz 0 1
Pd   0.45367357   0.18887141  -0.21635573 
O    1.95222402   1.28117627   0.61977550 
C    1.70930937   2.60708485   0.36332865 
O    0.61816045   2.95873934  -0.14952858 
C    2.80397177   3.61843379   0.64157724 
H    2.36515482   4.53047174   1.06270787 
H    3.24823429   3.91288715  -0.31149819 
H    3.57903428   3.25291735   1.29813331 
N   -1.39385297  -0.82532613  -1.01864243 
C   -1.17492088  -2.04985877  -1.77924378 
H   -0.53528187  -1.86649261  -2.62040482 
H   -2.13117598  -2.38447053  -2.18628496 
H   -0.73666646  -2.80437296  -1.14983500 
C   -1.99808381   0.17919419  -1.90002444 
H   -2.10082560   1.13831514  -1.41604484 
H   -2.97503366  -0.18088894  -2.21457381 
H   -1.38061576   0.29053094  -2.78705674 
C   -1.65353222  -1.10876210   1.46897007 
C   -1.67052014  -2.21557535   2.35500116 
C   -1.35123119  -2.05569048   3.68670444 
C   -1.02551028  -0.80071384   4.17170836 
C   -1.09179632   0.31401637   3.32968514 
C   -1.32155757   0.10632020   2.00399247 
H   -0.79134128  -0.66213634   5.22346592 
H   -1.02137138   1.27308673   3.79128611 
H   -2.14796515  -3.13942934   2.07229533 
H   -1.52391184  -2.86443099   4.38607597 
H   -1.52796856   3.69792769   1.13284902 
C   -2.32260095  -1.14086106   0.14564534 
H   -3.14434366  -0.41471734   0.17616030 
H   -2.84431069  -2.08907798  -0.00658000 
O    1.62432851   0.38247732  -1.89537703 
C    2.28589286  -0.61698208  -2.44251382 
O    1.96185427  -1.78907288  -2.35895350 
C    3.56367442  -0.23987870  -3.22675663 
H    4.01585546  -1.11947690  -3.69814167 
H    4.30848930   0.14926425  -2.54362520 
H    3.37424307   0.48495006  -4.01165301 
*
