! EnGrad PBEh-3c
%output 
xyzfile=True 
end 
%scf 
maxiter 250 
end
%output
Print[P_Hirshfeld] = 1
end
% maxcore
4000
*xyz 0 1
Pd   0.45710923   0.20419216  -0.21426121 
O    1.93131821   1.33493500   0.60494075 
C    1.66958409   2.56016361   0.34791001 
O    0.66025838   2.94635690  -0.12629315 
C    2.79336556   3.61618721   0.64114983 
H    2.36575538   4.52514582   1.06190344 
H    3.24894874   3.91015555  -0.31104312 
H    3.58258451   3.24999133   1.30045795 
N   -1.38810265  -0.81748166  -0.99633826 
C   -1.18160101  -2.04677320  -1.78308590 
H   -0.52529509  -1.86497776  -2.62386272 
H   -2.13440142  -2.38999459  -2.18410197 
H   -0.73311772  -2.81057958  -1.14772002 
C   -1.99780922   0.17121783  -1.90405897 
H   -2.10118267   1.14274032  -1.41154824 
H   -2.98141781  -0.17870864  -2.21778107 
H   -1.37884660   0.29303173  -2.78639195 
C   -1.66215587  -1.12122025   1.47812001 
C   -1.67902228  -2.20320474   2.34967408 
C   -1.35338012  -2.05286409   3.68957238 
C   -1.02931896  -0.79671049   4.17275014 
C   -1.08445942   0.30962325   3.34144313 
C   -1.30924760   0.11441394   1.99941578 
H   -0.79376883  -0.66116977   5.22112672 
H   -1.01340698   1.28565569   3.78980668 
H   -2.14306094  -3.14465888   2.06277179 
H   -1.51681981  -2.86668716   4.38383621 
H   -1.52353084   3.68181806   1.13307749 
C   -2.32271332  -1.13567279   0.12614187 
H   -3.13780013  -0.41204072   0.17284648 
H   -2.83765328  -2.09278019  -0.01023869 
O    1.63352457   0.36842996  -1.90112746 
C    2.27546075  -0.62054181  -2.43647684 
O    1.96255769  -1.78140203  -2.35997795 
C    3.55520047  -0.24743806  -3.22356523 
H    4.00876294  -1.11893183  -3.69410638 
H    4.30981105   0.15599370  -2.53994672 
H    3.37393633   0.49030564  -4.00986322 
*
