! EnGrad PBEh-3c
%output 
xyzfile=True 
end 
%scf 
maxiter 250 
end
%output
Print[P_Hirshfeld] = 1
end
% maxcore
4000
*xyz 0 1
Pd   0.45877576   0.21944806  -0.21187694 
O    1.91447719   1.35312374   0.59509288 
C    1.68417361   2.54010518   0.35361606 
O    0.64674627   2.94996604  -0.12959516 
C    2.78394486   3.60520074   0.64007315 
H    2.36433951   4.52069055   1.06194751 
H    3.24865739   3.90660507  -0.30972243 
H    3.58360825   3.24836666   1.30096655 
N   -1.38227066  -0.81196918  -0.98407852 
C   -1.18179494  -2.04507380  -1.78303191 
H   -0.51720950  -1.86309718  -2.62541600 
H   -2.13896877  -2.39510549  -2.18160532 
H   -0.73115595  -2.81419332  -1.14872339 
C   -1.99818833   0.16949535  -1.90277583 
H   -2.10163440   1.14362747  -1.40900255 
H   -2.98734597  -0.17672724  -2.22061294 
H   -1.37645710   0.29544809  -2.78572750 
C   -1.67189525  -1.11955277   1.47895979 
C   -1.68932386  -2.20092894   2.35102028 
C   -1.35614901  -2.04848835   3.68983968 
C   -1.03317317  -0.79766853   4.17701444 
C   -1.07783195   0.31384710   3.34524613 
C   -1.29602381   0.11710353   1.99851693 
H   -0.79631982  -0.65988264   5.21985774 
H   -1.00466791   1.29607939   3.78765090 
H   -2.13564412  -3.14723176   2.05302537 
H   -1.50862399  -2.86927423   4.38137142 
H   -1.51947244   3.66268907   1.13379514 
C   -2.32117700  -1.13369067   0.11678034 
H   -3.13216342  -0.40814134   0.16866821 
H   -2.83013479  -2.09597418  -0.01557550 
O    1.63827160   0.36058415  -1.90026786 
C    2.27377281  -0.62027790  -2.43691706 
O    1.95723934  -1.78479754  -2.36348979 
C    3.54885076  -0.24972458  -3.21853563 
H    4.00197748  -1.12072718  -3.68958313 
H    4.30859979   0.16105645  -2.53716667 
H    3.37465335   0.49360677  -4.00560112 
*
