! EnGrad PBEh-3c
%output 
xyzfile=True 
end 
%scf 
maxiter 250 
end
%output
Print[P_Hirshfeld] = 1
end
% maxcore
4000
*xyz 0 1
Pd   0.45441899   0.28339663  -0.20294709 
O    1.86574927   1.34821698   0.57088586 
C    1.69023470   2.55953581   0.34620732 
O    0.61875683   2.95035350  -0.12924402 
C    2.75616635   3.55670044   0.63811928 
H    2.35545072   4.49721852   1.06125281 
H    3.24410617   3.88834335  -0.30131769 
H    3.58353202   3.24265770   1.29982886 
N   -1.35656401  -0.79266583  -0.95315340 
C   -1.17432656  -2.03977028  -1.78044036 
H   -0.48693486  -1.85523657  -2.62647083 
H   -2.15549722  -2.41379720  -2.16846423 
H   -0.72473263  -2.82617594  -1.15658942 
C   -2.00042438   0.16963092  -1.89383217 
H   -2.10392434   1.14373889  -1.40044269 
H   -3.00825456  -0.16822505  -2.23062125 
H   -1.36685828   0.30514109  -2.78051937 
C   -1.71210178  -1.10175482   1.48103433 
C   -1.73495979  -2.19313950   2.35716323 
C   -1.37102149  -2.03538098   3.69095080 
C   -1.05004036  -0.79569806   4.19113312 
C   -1.04919891   0.33412244   3.35480411 
C   -1.23863528   0.12340735   1.99529932 
H   -0.80715527  -0.65449753   5.21998725 
H   -0.96468576   1.33765123   3.77719446 
H   -2.10235991  -3.15726208   2.01121956 
H   -1.47141703  -2.87923399   4.36925351 
H   -1.49891080   3.57485637   1.13636512 
C   -2.31438686  -1.12849733   0.09564108 
H   -3.10956698  -0.39007352   0.14834030 
H   -2.79650016  -2.10784469  -0.04147087 
O    1.65183587   0.33985309  -1.88716346 
C    2.27099999  -0.63445526  -2.44309230 
O    1.93297765  -1.79893339  -2.38072717 
C    3.52858236  -0.25169219  -3.19783350 
H    3.97215555  -1.12972287  -3.66937409 
H    4.29840723   0.18006630  -2.52717674 
H    3.37751874   0.50475810  -3.98366903 
*
