! EnGrad PBEh-3c
%output 
xyzfile=True 
end 
%scf 
maxiter 250 
end
%output
Print[P_Hirshfeld] = 1
end
% maxcore
4000
*xyz -1 1
Pd  -2.40778061  -1.67697494   0.82374249 
Cl  -4.12118443  -2.98762013   0.14761861 
Cl  -1.36072794  -3.55931221   1.89674757 
Cl  -3.40212527   0.20277589  -0.16344005 
N   -0.90152597  -0.31354201   1.43881656 
C   -1.15603664   0.17912104   2.63369880 
C   -0.66773739   1.40535005   3.07486527 
C    0.07421513   2.15521774   2.20794346 
C   -0.05647695   0.34384163   0.61471344 
C    0.40134061   1.63764329   0.94730735 
H    0.42437350   3.14537495   2.48063770 
H   -1.80475547  -0.41545501   3.26544263 
H   -0.91903851   1.75910109   4.06734570 
C    0.40272581  -0.28652391  -0.60859722 
C    1.15602180   2.38950974   0.00098082 
C    1.47187769   1.86934868  -1.19793107 
C    1.14014542   0.51800783  -1.52687547 
H    1.45394367   3.40058979   0.26201532 
H    2.02285844   2.45491818  -1.92477806 
C    0.21572756  -1.74988438  -0.81849942 
C    1.59399627  -0.05113906  -2.73009630 
C    0.71553850  -2.16916949  -2.07384530 
C    1.37392104  -1.37502700  -3.00686516 
H    2.13442022   0.56957288  -3.43135978 
H    1.73387981  -1.80645842  -3.93125700 
H   -0.10898399  -2.40452162  -0.18102483 
H    0.58853007  -3.23371107  -2.26894270 
*
