! EnGrad PBEh-3c
%output 
xyzfile=True 
end 
%scf 
maxiter 250 
end
%output
Print[P_Hirshfeld] = 1
end
% maxcore
4000
*xyz -1 1
Pd  -2.39604038  -1.70669756   0.82820247 
Cl  -4.10177803  -3.01811873   0.12779907 
Cl  -1.34863323  -3.53816131   1.84523638 
Cl  -3.40825779   0.17071201  -0.10964337 
N   -0.90353945  -0.31702735   1.44638972 
C   -1.16622284   0.19331143   2.63516519 
C   -0.67617737   1.41973432   3.07259388 
C    0.07612745   2.16391037   2.20080287 
C   -0.05981509   0.33590979   0.62026621 
C    0.39741543   1.63128733   0.94695689 
H    0.42825797   3.15463771   2.47686881 
H   -1.81820387  -0.39485370   3.26665781 
H   -0.92943410   1.77820978   4.06070912 
C    0.41131846  -0.28961107  -0.59809989 
C    1.16566321   2.38737472   0.00270519 
C    1.47602315   1.85244152  -1.19232565 
C    1.13600721   0.50603620  -1.51799748 
H    1.46997674   3.39971981   0.26579438 
H    2.03669589   2.43955199  -1.91546590 
C    0.24937247  -1.69634629  -0.85690611 
C    1.58754129  -0.05519767  -2.71738416 
C    0.70632334  -2.17849752  -2.08500325 
C    1.35936195  -1.37265594  -3.01513483 
H    2.14575516   0.56863853  -3.42154315 
H    1.71988428  -1.80246699  -3.92640841 
H   -0.13012229  -2.39046398  -0.16567603 
H    0.56160924  -3.23732854  -2.28306952 
*
