! EnGrad PBEh-3c
%output 
xyzfile=True 
end 
%scf 
maxiter 250 
end
%output
Print[P_Hirshfeld] = 1
end
% maxcore
4000
*xyz -1 1
Pd  -2.39636808  -1.70867563   0.82633901 
Cl  -4.09830202  -3.03286610   0.12092367 
Cl  -1.34310758  -3.52506939   1.82800383 
Cl  -3.40601731   0.15729553  -0.08965805 
N   -0.90327864  -0.31964851   1.45183234 
C   -1.17103488   0.19434710   2.63506442 
C   -0.67761328   1.42636114   3.06889486 
C    0.07361947   2.16438755   2.20154434 
C   -0.05996433   0.32983925   0.62352267 
C    0.39865953   1.63249855   0.94571769 
H    0.42940616   3.15551666   2.47317137 
H   -1.82388778  -0.38760197   3.26878632 
H   -0.93341783   1.78507357   4.05869850 
C    0.41837303  -0.28859407  -0.59664076 
C    1.16532113   2.38178089   0.00613120 
C    1.47977205   1.85259422  -1.19144706 
C    1.13524477   0.50306595  -1.51225677 
H    1.47416749   3.39489752   0.26610108 
H    2.03876843   2.42943759  -1.91105678 
C    0.25615035  -1.69293104  -0.86306802 
C    1.59038041  -0.05219402  -2.72353100 
C    0.70692091  -2.17660489  -2.08598035 
C    1.35014648  -1.37483221  -3.00930535 
H    2.14445708   0.56450812  -3.41063909 
H    1.71695264  -1.80278250  -3.93405740 
H   -0.13305115  -2.36330493  -0.17176439 
H    0.55233851  -3.24095146  -2.28794624 
*
