! EnGrad PBEh-3c
%output 
xyzfile=True 
end 
%scf 
maxiter 250 
end
%output
Print[P_Hirshfeld] = 1
end
% maxcore
4000
*xyz -1 1
Pd  -2.40175048  -1.71238526   0.82277384 
Cl  -4.09141141  -3.06091112   0.10921686 
Cl  -1.32619493  -3.50589207   1.80291035 
Cl  -3.40692685   0.14473438  -0.05967983 
N   -0.90021015  -0.32382861   1.45719197 
C   -1.17845147   0.19662281   2.63792477 
C   -0.68571885   1.43370162   3.06729702 
C    0.06993223   2.16486561   2.19859737 
C   -0.05350570   0.32436362   0.62850803 
C    0.39745442   1.62799950   0.94990058 
H    0.43107096   3.15605440   2.46479384 
H   -1.83624546  -0.37445499   3.27403729 
H   -0.94108940   1.79740034   4.05202112 
C    0.42537484  -0.30192795  -0.59336343 
C    1.16573022   2.37617262   0.01359951 
C    1.48515718   1.84771049  -1.18887389 
C    1.14132723   0.50003265  -1.50856387 
H    1.47957367   3.38136754   0.26741562 
H    2.04682025   2.41609672  -1.90881860 
C    0.27956532  -1.65422332  -0.89545730 
C    1.58579903  -0.05517751  -2.72016276 
C    0.70012062  -2.18593489  -2.07742905 
C    1.34771350  -1.37742563  -3.01677660 
H    2.14731798   0.56449150  -3.40026698 
H    1.70655117  -1.79932121  -3.94409859 
H   -0.15189711  -2.33363054  -0.16089713 
H    0.53781184  -3.23758174  -2.29413525 
*
