! EnGrad PBEh-3c
%output 
xyzfile=True 
end 
%scf 
maxiter 250 
end
%output
Print[P_Hirshfeld] = 1
end
% maxcore
4000
*xyz 0 1
C   -1.90098955   0.13810047  -0.14521207 
C   -1.57771654  -0.60217083  -1.27142061 
C   -0.78933167  -1.73447790  -1.15605107 
C   -0.29963675  -2.11130854   0.08279356 
C   -1.43197734  -0.26549495   1.09495894 
C   -0.60058712  -1.36668968   1.21204513 
H   -2.53823194   1.00510204  -0.26125708 
H   -1.96337938  -0.31937149  -2.24166434 
H   -0.57142060  -2.33383445  -2.03139173 
H   -0.19070374  -1.66787008   2.16709225 
H    0.31542474  -2.99734521   0.16580621 
Pd   1.41765256   1.23630842   0.01449441 
O    2.26634671   0.63136630  -1.73688253 
O    2.61100500  -0.41682738   0.11790219 
O    0.31019931   2.94127653  -0.08681342 
C    0.17853977   2.97966563   1.15843408 
O    0.73908314   2.08391431   1.84703712 
H   -1.78339313   0.41261516   2.19227579 
C    2.79586560  -0.32594462  -1.12140806 
H    3.43660232  -1.04612916  -1.64180697 
H   -0.42335021   3.75910542   1.64107061 
*
