! EnGrad PBEh-3c
%output 
xyzfile=True 
end 
%scf 
maxiter 250 
end
%output
Print[P_Hirshfeld] = 1
end
% maxcore
4000
*xyz 0 1
C   -1.89574727   0.14950962  -0.14664152 
C   -1.66208570  -0.64575550  -1.27043033 
C   -0.91672746  -1.80161882  -1.13734191 
C   -0.36568369  -2.16582332   0.07547217 
C   -1.37301572  -0.23915495   1.06502420 
C   -0.59060691  -1.36235919   1.19485734 
H   -2.48709234   1.07058260  -0.22634896 
H   -2.07168178  -0.32816815  -2.22188256 
H   -0.76638027  -2.42204183  -1.98390878 
H   -0.15497590  -1.61874850   2.16814140 
H    0.24034886  -3.05641217   0.19593933 
Pd   1.48274534   1.29810597   0.06029451 
O    2.29772747   0.69402427  -1.67849340 
O    2.63029381  -0.39380735   0.15226392 
O    0.33959490   2.95642540  -0.09550791 
C    0.17095678   2.94824355   1.14866901 
O    0.70908970   2.02443562   1.81943574 
H   -1.56909337   0.35049404   1.93012325 
C    2.84874881  -0.26145735  -1.07584266 
H    3.53317199  -0.92867879  -1.60259328 
H   -0.42179854   3.73308764   1.63468605 
*
