! EnGrad PBEh-3c
%output 
xyzfile=True 
end 
%scf 
maxiter 250 
end
%output
Print[P_Hirshfeld] = 1
end
% maxcore
4000
*xyz 0 1
C   -1.89833565   0.15110000  -0.15006533 
C   -1.66905195  -0.63233939  -1.26499628 
C   -0.91789246  -1.80334492  -1.13869159 
C   -0.36365786  -2.16359233   0.09144022 
C   -1.37560966  -0.23117477   1.07629029 
C   -0.58931719  -1.36669726   1.19676801 
H   -2.48063910   1.05984391  -0.22540671 
H   -2.07593536  -0.33138988  -2.23677244 
H   -0.76454527  -2.43457187  -2.00087399 
H   -0.16038377  -1.61682893   2.15733348 
H    0.24589800  -3.06947888   0.18969982 
Pd   1.47787668   1.29751121   0.06548880 
O    2.29545052   0.69299735  -1.68104823 
O    2.63250444  -0.38933260   0.15526750 
O    0.34391370   2.96043712  -0.09657136 
C    0.17261050   2.94877395   1.15105981 
O    0.70890548   2.02625067   1.81300838 
H   -1.56893089   0.36391378   1.94488780 
C    2.85305223  -0.25897170  -1.07425502 
H    3.53333178  -0.93141569  -1.60441079 
H   -0.42219837   3.73026410   1.63696071 
*
