! EnGrad PBEh-3c
%output 
xyzfile=True 
end 
%scf 
maxiter 250 
end
%output
Print[P_Hirshfeld] = 1
end
% maxcore
4000
*xyz 0 1
C   -1.89986411   0.15319091  -0.14982592 
C   -1.67461799  -0.63038957  -1.26553782 
C   -0.92333612  -1.80423171  -1.13581031 
C   -0.36464997  -2.16662891   0.09519078 
C   -1.37205506  -0.23009403   1.07396550 
C   -0.58973909  -1.36751580   1.19911571 
H   -2.47571008   1.05693823  -0.22563746 
H   -2.07835074  -0.33718046  -2.23447557 
H   -0.77094971  -2.44560795  -2.00935607 
H   -0.16035089  -1.61538533   2.15124336 
H    0.23928561  -3.06991962   0.18585655 
Pd   1.47804103   1.29727839   0.06791503 
O    2.29556615   0.69483447  -1.67938600 
O    2.63346257  -0.38541399   0.15742874 
O    0.34661506   2.96349660  -0.09533329 
C    0.17300363   2.94929589   1.15200371 
O    0.70784273   2.02614301   1.80983361 
H   -1.56209813   0.37059446   1.94666369 
C    2.85883396  -0.25432049  -1.07206120 
H    3.53813857  -0.93071512  -1.60470806 
H   -0.42316986   3.72839427   1.63755350 
*
