! EnGrad PBEh-3c
%output 
xyzfile=True 
end 
%scf 
maxiter 250 
end
%output
Print[P_Hirshfeld] = 1
end
% maxcore
4000
*xyz 0 1
C   -1.89907441   0.15104121  -0.15120957 
C   -1.67246104  -0.63507703  -1.26627624 
C   -0.92287243  -1.80545776  -1.13793364 
C   -0.36691497  -2.16635695   0.09039009 
C   -1.37268723  -0.22536648   1.07993176 
C   -0.59133715  -1.36897719   1.19729516 
H   -2.47571431   1.05598531  -0.22766735 
H   -2.07608869  -0.34380171  -2.23060335 
H   -0.77128192  -2.44797127  -2.01239958 
H   -0.15953635  -1.61723903   2.15006298 
H    0.23361659  -3.06605681   0.18041484 
Pd   1.47546970   1.29408981   0.06523923 
O    2.29513940   0.69361619  -1.67893615 
O    2.63524580  -0.38173197   0.15749734 
O    0.34837402   2.96707194  -0.09375970 
C    0.17360069   2.95269645   1.15238864 
O    0.70861036   2.02762631   1.81076594 
H   -1.56265761   0.37887112   1.95679559 
C    2.86243450  -0.25288284  -1.07207062 
H    3.53868873  -0.93422788  -1.60555332 
H   -0.42516898   3.72807837   1.63917148 
*
