! EnGrad PBEh-3c
%output 
xyzfile=True 
end 
%scf 
maxiter 250 
end
%output
Print[P_Hirshfeld] = 1
end
% maxcore
4000
*xyz 0 1
C   -1.89579942   0.14739004  -0.14678402 
C   -1.66732819  -0.64478306  -1.26784211 
C   -0.92097734  -1.80976713  -1.14490961 
C   -0.37119732  -2.16567031   0.07987344 
C   -1.37428646  -0.21944599   1.08817696 
C   -0.59669390  -1.36528202   1.19531984 
H   -2.47730086   1.05594650  -0.23130988 
H   -2.07350112  -0.35244493  -2.22741283 
H   -0.77146597  -2.44736368  -2.01225738 
H   -0.15781969  -1.62114405   2.15019385 
H    0.22737623  -3.06246537   0.17293068 
Pd   1.47079817   1.29079393   0.06097295 
O    2.29507440   0.69116242  -1.67913735 
O    2.63933022  -0.37696686   0.15722808 
O    0.35089224   2.97257074  -0.09212896 
C    0.17557623   2.95620668   1.15284195 
O    0.70972552   2.03026469   1.81261798 
H   -1.56369265   0.38925462   1.96963485 
C    2.86614160  -0.25246720  -1.07249320 
H    3.53819715  -0.93850081  -1.60583670 
H   -0.42849474   3.72839004   1.64216529 
*
