! EnGrad PBEh-3c
%output 
xyzfile=True 
end 
%scf 
maxiter 250 
end
%output
Print[P_Hirshfeld] = 1
end
% maxcore
4000
*xyz 0 1
C   -1.89818054   0.15004467  -0.15000167 
C   -1.67106009  -0.63772617  -1.26670362 
C   -0.92235519  -1.80663395  -1.13983765 
C   -0.36808378  -2.16616954   0.08751970 
C   -1.37312372  -0.22375056   1.08218219 
C   -0.59279921  -1.36796864   1.19675602 
H   -2.47614734   1.05597471  -0.22866153 
H   -2.07538244  -0.34616077  -2.22973253 
H   -0.77133216  -2.44780544  -2.01236077 
H   -0.15906781  -1.61830486   2.15009870 
H    0.23191336  -3.06507657   0.17837213 
Pd   1.47419466   1.29319024   0.06407480 
O    2.29512166   0.69294646  -1.67899107 
O    2.63636059  -0.38043139   0.15742385 
O    0.34906133   2.96857277  -0.09331461 
C    0.17413989   2.95365452   1.15251236 
O    0.70891473   2.02834642   1.81127143 
H   -1.56294011   0.38170517   1.96029991 
C    2.86344631  -0.25276940  -1.07218596 
H    3.53855456  -0.93539412  -1.60563066 
H   -0.42607670   3.72816344   1.63998860 
*
