! EnGrad PBEh-3c
%output 
xyzfile=True 
end 
%scf 
maxiter 250 
end
%output
Print[P_Hirshfeld] = 1
end
% maxcore
4000
*xyz 0 1
C   -1.90006086   0.14520847  -0.15229163 
C   -1.59090348  -0.61467464  -1.28029194 
C   -0.81548838  -1.75635425  -1.16167034 
C   -0.30774801  -2.12709536   0.07374524 
C   -1.46049598  -0.16360988   1.23472329 
C   -0.59363061  -1.36899759   1.20980622 
H   -2.52099559   1.01310618  -0.26563505 
H   -1.98620443  -0.33047269  -2.24154864 
H   -0.61904305  -2.36213120  -2.02735281 
H   -0.17391117  -1.66101755   2.15472319 
H    0.29296573  -3.01469890   0.16321205 
Pd   1.41642914   1.25152280   0.04722172 
O    2.28281205   0.65029191  -1.73053364 
O    2.60258814  -0.41481727   0.11615891 
O    0.31261860   2.93843272  -0.10342389 
C    0.18487894   2.95745674   1.18666085 
O    0.72868682   2.08854031   1.83282713 
H   -1.71870763   0.34836664   2.06395705 
C    2.83023883  -0.31649961  -1.11718043 
H    3.46579921  -1.02841258  -1.63824533 
H   -0.43156264   3.76405341   1.63610171 
*
