! EnGrad PBEh-3c
%output 
xyzfile=True 
end 
%scf 
maxiter 250 
end
%output
Print[P_Hirshfeld] = 1
end
% maxcore
4000
*xyz 0 1
C   -1.90055180   0.14145093  -0.14854912 
C   -1.58393239  -0.60806468  -1.27560224 
C   -0.80166101  -1.74478963  -1.15869980 
C   -0.30346011  -2.11874988   0.07852850 
C   -1.44542000  -0.21746997   1.16083887 
C   -0.59730807  -1.36777755   1.21098979 
H   -2.53010734   1.00887491  -0.26332070 
H   -1.97413829  -0.32460420  -2.24160980 
H   -0.59386812  -2.34717253  -2.02948792 
H   -0.18278833  -1.66464004   2.16126192 
H    0.30483836  -3.00552512   0.16458342 
Pd   1.41707589   1.24347994   0.02992089 
O    2.27410788   0.64028716  -1.73388989 
O    2.60703759  -0.41587988   0.11708047 
O    0.31133968   2.93993606  -0.09464300 
C    0.18152782   2.96919715   1.17173917 
O    0.73418269   2.08609484   1.84033904 
H   -1.75290270   0.38233070   2.13179091 
C    2.81206791  -0.32149258  -1.11941531 
H    3.45036469  -1.03777820  -1.64012814 
H   -0.42722126   3.76143772   1.63872845 
*
