! EnGrad PBEh-3c
%output 
xyzfile=True 
end 
%scf 
maxiter 250 
end
%output
Print[P_Hirshfeld] = 1
end
% maxcore
4000
*xyz 0 1
C   -1.89742155   0.14419838  -0.13650857 
C   -1.59073738  -0.61423549  -1.27564453 
C   -0.81549555  -1.75581629  -1.16056866 
C   -0.31028505  -2.12313635   0.07542337 
C   -1.45246700  -0.18021824   1.20855555 
C   -0.60252912  -1.35647821   1.21326098 
H   -2.52224235   1.01450435  -0.26672271 
H   -1.98629538  -0.32978772  -2.24192517 
H   -0.61840678  -2.36261371  -2.02842173 
H   -0.17312759  -1.66241145   2.15592486 
H    0.29387046  -3.01515245   0.16372218 
Pd   1.41800497   1.25147846   0.04461299 
O    2.28323149   0.64778446  -1.72864142 
O    2.60323129  -0.41511532   0.11627038 
O    0.31261428   2.93781446  -0.09529072 
C    0.17954993   2.96668063   1.17266100 
O    0.73301638   2.08058616   1.83928190 
H   -1.71884558   0.34886095   2.06443988 
C    2.82615785  -0.31195414  -1.11662234 
H    3.46640955  -1.02923534  -1.63880466 
H   -0.43018966   3.76249146   1.63600347 
*
