! EnGrad PBEh-3c
%output 
xyzfile=True 
end 
%scf 
maxiter 250 
end
%output
Print[P_Hirshfeld] = 1
end
% maxcore
4000
*xyz 0 1
C   -1.89336870   0.14707878  -0.10844033 
C   -1.59828709  -0.61675509  -1.26498410 
C   -0.82870299  -1.76531806  -1.16084969 
C   -0.32112509  -2.11922122   0.07919441 
C   -1.43908899  -0.18768811   1.18653092 
C   -0.61662106  -1.33339935   1.22099101 
H   -2.51588452   1.02097965  -0.27005563 
H   -1.99750424  -0.33317191  -2.24083884 
H   -0.64040586  -2.37793791  -2.02925248 
H   -0.16421033  -1.66116181   2.15197014 
H    0.28414958  -3.02310978   0.16442550 
Pd   1.42249732   1.25962003   0.05603580 
O    2.28979021   0.65352151  -1.72210990 
O    2.60026092  -0.41413315   0.11710136 
O    0.31375900   2.93595860  -0.08973079 
C    0.17468157   2.96914981   1.16391987 
O    0.73394136   2.06972170   1.84051318 
H   -1.69353021   0.33284887   2.02480649 
C    2.83547729  -0.29989973  -1.11284902 
H    3.48154186  -1.02117588  -1.63771148 
H   -0.43100053   3.76158533   1.63311441 
*
