! EnGrad PBEh-3c
%output 
xyzfile=True 
end 
%scf 
maxiter 250 
end
%output
Print[P_Hirshfeld] = 1
end
% maxcore
4000
*xyz 0 1
C   -1.90707732   0.15551283  -0.15417216 
C   -1.63091634  -0.61327193  -1.23895546 
C   -0.86879252  -1.76851520  -1.13484264 
C   -0.34690894  -2.11837810   0.10308634 
C   -1.39441051  -0.23746521   1.08779970 
C   -0.58816573  -1.37365350   1.21177589 
H   -2.49851894   1.03736427  -0.25551524 
H   -2.01759654  -0.33637722  -2.19919809 
H   -0.69393182  -2.40735753  -2.02172716 
H   -0.15844325  -1.64235358   2.14928392 
H    0.24533234  -3.00824267   0.17990745 
Pd   1.45608395   1.27159564   0.05508209 
O    2.29377968   0.67708982  -1.70304342 
O    2.60485477  -0.40928873   0.13117535 
O    0.31867797   2.94011941  -0.08878785 
C    0.17123839   2.95774817   1.16605242 
O    0.72042497   2.05622326   1.83122251 
H   -1.64319035   0.33303973   1.98043400 
C    2.84380204  -0.28287882  -1.09768041 
H    3.50979313  -0.98515889  -1.62490315 
H   -0.42647746   3.75196290   1.62744748 
*
