! EnGrad PBEh-3c
%output 
xyzfile=True 
end 
%scf 
maxiter 250 
end
%output
Print[P_Hirshfeld] = 1
end
% maxcore
4000
*xyz 0 1
C   -1.90504374   0.15517351  -0.15097945 
C   -1.63458379  -0.62387270  -1.25260694 
C   -0.87662147  -1.77252859  -1.13349527 
C   -0.34763399  -2.13242686   0.09065414 
C   -1.39100620  -0.23736392   1.08460618 
C   -0.58918152  -1.37006268   1.21004408 
H   -2.49862374   1.04607646  -0.25135385 
H   -2.02364611  -0.33573452  -2.19437734 
H   -0.70666512  -2.40657417  -2.01090874 
H   -0.15594979  -1.63929568   2.15554714 
H    0.23991181  -3.00850601   0.18368028 
Pd   1.46183055   1.27548463   0.05411457 
O    2.29502162   0.68047156  -1.69819356 
O    2.60823377  -0.40765483   0.13377769 
O    0.32086430   2.94196987  -0.08955832 
C    0.17112286   2.95557967   1.16335695 
O    0.71830276   2.05141231   1.83086857 
H   -1.63059063   0.33164465   1.96708853 
C    2.84424533  -0.28024277  -1.09467454 
H    3.51377701  -0.97537874  -1.62077698 
H   -0.42591713   3.74984441   1.62802540 
*
