! EnGrad PBEh-3c
%output 
xyzfile=True 
end 
%scf 
maxiter 250 
end
%output
Print[P_Hirshfeld] = 1
end
% maxcore
4000
*xyz 1 1
Sc   1.17969527  -0.81950620  -1.90336116 
C    0.34142331  -0.53714132   0.22635263 
N   -0.47724503  -1.34395467   0.94360854 
C   -0.72867857  -0.79570721   2.16023045 
C   -0.11777119   0.36808088   2.21513681 
N    0.52604856   0.53975228   1.04688809 
C    1.40556446   1.68222259   0.65228339 
H    1.36074256   2.43787902   1.46924976 
H    1.05783429   2.14335334  -0.22894636 
H    2.42386656   1.36347135   0.58991488 
C   -0.95663098  -2.65189577   0.53338473 
H   -0.65383154  -2.89233993  -0.47398642 
H   -2.05052656  -2.66907174   0.56477902 
H   -0.58161784  -3.42498113   1.20829355 
H   -1.34889638  -1.29398676   2.90106231 
H   -0.05385603   1.09681008   3.00535097 
C   -0.10386284   1.62622298  -2.87022954 
H   -0.76490359   1.61428171  -3.76812515 
H    0.56066219   2.45280220  -3.00210001 
H   -0.73687738   1.74171525  -2.03636488 
H   -0.28046286  -0.63650242  -3.23472593 
*
