! EnGrad PBEh-3c
%output 
xyzfile=True 
end 
%scf 
maxiter 250 
end
%output
Print[P_Hirshfeld] = 1
end
% maxcore
4000
*xyz 1 1
Sc   1.13729259  -0.78608414  -1.96200634 
C    0.38700420  -0.56804126   0.25077021 
N   -0.47125373  -1.34723533   0.93664486 
C   -0.76652378  -0.78349768   2.14696501 
C   -0.14011783   0.38936255   2.19265653 
N    0.55979698   0.52580723   1.01583733 
C    1.41001504   1.65132193   0.65033006 
H    1.43126118   2.35039731   1.46981745 
H    1.02522485   2.15976516  -0.25368506 
H    2.44764714   1.31606812   0.48729195 
C   -0.97130397  -2.65368035   0.54435553 
H   -0.62758149  -2.92216650  -0.45579901 
H   -2.05687650  -2.65779889   0.51886829 
H   -0.63463741  -3.41398043   1.24812526 
H   -1.40255431  -1.26319261   2.87882850 
H   -0.09961704   1.16053642   2.96296611 
C   -0.18081129   1.59469322  -2.85192516 
H   -0.85216798   1.56486135  -3.71026560 
H    0.50018705   2.45770891  -2.96778531 
H   -0.78464835   1.67492258  -1.94909553 
H    0.09159042  -0.44594308  -3.15414250 
*
