! EnGrad PBEh-3c
%output 
xyzfile=True 
end 
%scf 
maxiter 250 
end
%output
Print[P_Hirshfeld] = 1
end
% maxcore
4000
*xyz 1 1
Sc   1.15248711  -0.76239424  -1.95784196 
C    0.40774274  -0.58508892   0.25147826 
N   -0.46333077  -1.35259365   0.93731132 
C   -0.78766499  -0.76956721   2.13579869 
C   -0.14294150   0.40536078   2.17278421 
N    0.57532776   0.51114408   1.00392513 
C    1.41341656   1.63121509   0.63849713 
H    1.46835166   2.30928126   1.47366161 
H    1.01221217   2.16421286  -0.25637063 
H    2.45136981   1.29091622   0.43132565 
C   -0.97681900  -2.65517629   0.54692433 
H   -0.61159641  -2.93657245  -0.44220738 
H   -2.06267525  -2.65012883   0.49551568 
H   -0.66266528  -3.40774596   1.26847508 
H   -1.43602023  -1.24906446   2.86988096 
H   -0.12517582   1.19421646   2.94325787 
C   -0.21148158   1.56020947  -2.83371132 
H   -0.91069564   1.54141716  -3.69422410 
H    0.46623628   2.43265541  -2.94990958 
H   -0.80787127   1.63621271  -1.90401848 
H    0.25482280  -0.30289888  -3.13144605 
*
