27
Generated by autodE on: 2023-07-09. E = -53.975624 Ha
Pd   -2.00352  -1.94208   1.16129
Cl   -3.16909  -3.83662   0.98575
Cl   -0.25263  -2.98608   2.24749
Cl   -3.68351  -0.68302   0.19778
N    -1.00904  -0.27202   1.37095
C    -1.33938   0.27890   2.53633
C    -0.81362   1.47469   2.99880
C     0.10315   2.13467   2.21262
C    -0.10918   0.34670   0.56677
C     0.46969   1.57633   0.97964
H     0.54425   3.07044   2.52543
H    -2.06887  -0.26645   3.13996
H    -1.12521   1.86664   3.95471
C     0.28532  -0.20849  -0.70926
C     1.41582   2.24226   0.15288
C     1.78449   1.72292  -1.03809
C     1.23534   0.49573  -1.49751
H     1.82922   3.17586   0.50925
H     2.50446   2.22970  -1.66630
C    -0.21456  -1.41790  -1.23355
C     1.63878  -0.01886  -2.74059
C     0.19746  -1.89798  -2.45205
C     1.13186  -1.19827  -3.21751
H     2.36363   0.54019  -3.31742
H     1.44887  -1.58613  -4.17527
H    -0.95551  -2.01253  -0.67207
H    -0.20823  -2.82858  -2.82003
