! EnGrad PBEh-3c
%output 
xyzfile=True 
end 
%scf 
maxiter 250 
end
%output
Print[P_Hirshfeld] = 1
end
% maxcore
4000
*xyz 0 1
Lu   0.09203641  -0.20787863   0.18259218 
C    0.48459247   0.59640000   2.59652506 
C    1.58958565  -0.22166102   2.26657532 
C    2.34548661   0.44781114   1.28071030 
C    1.67354758   1.64129090   0.94134109 
C    0.54788895   1.74828706   1.79160859 
H    2.01021883   2.38970918   0.23778461 
H   -0.04841217   2.64012174   1.90896140 
H   -0.19455786   0.43906393   3.41962674 
H    1.82636967  -1.17287889   2.72186588 
H    3.26907670   0.09431406   0.84825108 
C    0.74174042  -0.11197703  -2.29171904 
C   -0.47326796  -0.83043755  -2.24603239 
C    1.14142815  -2.10321026  -1.25829651 
C    1.74364757  -0.91043355  -1.70542095 
H    0.89414222   0.83582811  -2.78755581 
C   -0.22755884  -2.05021209  -1.60033880 
H   -1.36937764  -0.58117924  -2.79076241 
H    2.78972941  -0.66268065  -1.60757417 
H    1.63941171  -2.91963544  -0.75437206 
H   -0.93458858  -2.86044849  -1.50998489 
C   -2.02378990  -1.47247948   1.17226003 
H   -2.33567110  -1.15027939   2.16916963 
H   -1.95426055  -2.56878969   1.23262167 
H   -2.85861436  -1.34955333   0.47395811 
C   -1.92600618   2.15133148  -1.00667808 
H   -2.54455150   0.80374341   0.21576779 
H   -0.98790572   2.63397340  -1.30077278 
H   -2.54439454   2.99030834  -0.67333466 
H   -2.36595545   1.76156600  -1.92678494 
*
