! EnGrad PBEh-3c
%output 
xyzfile=True 
end 
%scf 
maxiter 250 
end
%output
Print[P_Hirshfeld] = 1
end
% maxcore
4000
*xyz 0 1
Lu  -0.04341156  -0.26515198   0.21171515 
C    0.45442494   0.74386281   2.54923094 
C    1.47604142  -0.18092249   2.23898636 
C    2.29938389   0.39696799   1.25154418 
C    1.77028850   1.65480933   0.91863026 
C    0.63059366   1.87217799   1.72607531 
H    2.22150091   2.37008523   0.24163080 
H    0.03756662   2.77823798   1.74943461 
H   -0.30507097   0.61819991   3.30745528 
H    1.63255359  -1.14156035   2.71258957 
H    3.21440154  -0.02916340   0.86161842 
C    0.84991384  -0.08138802  -2.35552474 
C   -0.39930792  -0.74805569  -2.38331755 
C    1.07017292  -2.04238287  -1.21505390 
C    1.75606488  -0.89057914  -1.65247850 
H    1.09592062   0.83823231  -2.86853692 
C   -0.26010419  -1.96277081  -1.68853687 
H   -1.28459007  -0.40847950  -2.90027326 
H    2.81300263  -0.70053320  -1.53637408 
H    1.50835926  -2.87312302  -0.67996534 
H   -1.03787988  -2.68925687  -1.51852835 
C   -2.03690069  -1.47083745   1.15329133 
H   -2.21290039  -1.27483505   2.21967895 
H   -1.79379222  -2.54660356   1.12696251 
H   -3.05245779  -1.42993388   0.71965075 
C   -2.08446222   1.92516455  -0.85389800 
H   -2.05227749   1.04486286  -0.14760834 
H   -1.03929521   2.21496275  -1.00582806 
H   -2.64430549   2.68504309  -0.32711898 
H   -2.57004460   1.56709375  -1.75373572 
*
