! EnGrad PBEh-3c
%output 
xyzfile=True 
end 
%scf 
maxiter 250 
end
%output
Print[P_Hirshfeld] = 1
end
% maxcore
4000
*xyz 0 1
Lu  -0.02091366  -0.28325177   0.21674392 
C    0.42640590   0.77545600   2.52353338 
C    1.43854350  -0.17128960   2.23546638 
C    2.28457349   0.38178577   1.24858301 
C    1.78436776   1.65012484   0.90106954 
C    0.63494056   1.89118667   1.68495010 
H    2.27324127   2.35714287   0.24382469 
H    0.07433324   2.81589983   1.70849460 
H   -0.34287350   0.67224152   3.26930711 
H    1.57575452  -1.12868123   2.71461541 
H    3.18167865  -0.06691928   0.85896761 
C    0.87170509  -0.06984679  -2.35692124 
C   -0.38436012  -0.71371103  -2.39557049 
C    1.04962684  -2.03091228  -1.21264610 
C    1.75729701  -0.88981662  -1.63996830 
H    1.15153713   0.83182425  -2.88816377 
C   -0.27577503  -1.92915892  -1.69950458 
H   -1.25497593  -0.36228802  -2.93599109 
H    2.80959411  -0.70360246  -1.50052777 
H    1.46655896  -2.85669431  -0.65333300 
H   -1.06658025  -2.64387054  -1.53455650 
C   -2.03364869  -1.44306376   1.15324183 
H   -2.15807223  -1.29487325   2.23545442 
H   -1.75638030  -2.50714859   1.07166881 
H   -3.07739459  -1.42569697   0.77892632 
C   -2.05172161   1.85630482  -0.81847813 
H   -2.01608005   0.96017694  -0.12716030 
H   -1.00507088   2.16527480  -0.98508329 
H   -2.67534883   2.60666964  -0.21584690 
H   -2.63922721   1.51501424  -1.73683017 
*
