! EnGrad PBEh-3c
%output 
xyzfile=True 
end 
%scf 
maxiter 250 
end
%output
Print[P_Hirshfeld] = 1
end
% maxcore
4000
*xyz 0 1
Lu   0.03257372  -0.22362125   0.19888404 
C    0.49202840   0.61817886   2.59734033 
C    1.57983204  -0.21003281   2.26170713 
C    2.33775183   0.43661920   1.27359660 
C    1.69215626   1.64464018   0.95433231 
C    0.56280503   1.76553540   1.78806233 
H    2.03026685   2.38790334   0.23673628 
H   -0.04644325   2.65042654   1.89026128 
H   -0.20620529   0.45344702   3.40635825 
H    1.80852317  -1.17013668   2.72010668 
H    3.26698258   0.08310787   0.85082431 
C    0.75956877  -0.10824682  -2.30814058 
C   -0.45799447  -0.82616520  -2.26918751 
C    1.13050091  -2.09228708  -1.25130067 
C    1.74490713  -0.90803728  -1.69747544 
H    0.91286573   0.83854861  -2.79391557 
C   -0.22993524  -2.05268528  -1.61381282 
H   -1.36535027  -0.56159667  -2.79610405 
H    2.79388979  -0.66620734  -1.60402827 
H    1.62756472  -2.91619741  -0.74988187 
H   -0.94538826  -2.84095318  -1.50505186 
C   -2.00051409  -1.46612283   1.15687377 
H   -2.33152373  -1.16213860   2.17372723 
H   -1.93328386  -2.57459468   1.22784832 
H   -2.88761807  -1.36054646   0.50006562 
C   -2.00566552   2.11014322  -0.97672864 
H   -2.46918169   0.85781785   0.15198763 
H   -0.97081517   2.59357312  -1.26940781 
H   -2.54715458   2.95559443  -0.64158389 
H   -2.37516671   1.74386611  -1.89979305 
*
