! EnGrad PBEh-3c
%output 
xyzfile=True 
end 
%scf 
maxiter 250 
end
%output
Print[P_Hirshfeld] = 1
end
% maxcore
4000
*xyz 0 1
Lu  -0.04770240  -0.24357865   0.21869444 
C    0.49484820   0.65366844   2.59986856 
C    1.56369758  -0.20674747   2.26193048 
C    2.33043873   0.42202021   1.25893525 
C    1.72344377   1.65637509   0.96095756 
C    0.58393814   1.79510618   1.78362271 
H    2.06500008   2.38135290   0.23877264 
H   -0.03968801   2.67067275   1.85842252 
H   -0.22384205   0.48092823   3.38279106 
H    1.77495943  -1.15974970   2.71459599 
H    3.26160813   0.06300154   0.85572668 
C    0.78479070  -0.10995163  -2.32847454 
C   -0.43860744  -0.81904119  -2.30606489 
C    1.11750197  -2.08301287  -1.23599728 
C    1.74824563  -0.90033984  -1.68594622 
H    0.94742214   0.84668451  -2.80817439 
C   -0.23057128  -2.03756549  -1.64020496 
H   -1.35346757  -0.52906517  -2.80721966 
H    2.80023966  -0.67382321  -1.59647027 
H    1.60498884  -2.90691550  -0.74239593 
H   -0.96881429  -2.81357577  -1.49802854 
C   -1.98346081  -1.46314985   1.14377426 
H   -2.31698054  -1.18665436   2.17220544 
H   -1.89902617  -2.57679800   1.21734543 
H   -2.92791746  -1.38049485   0.54877972 
C   -2.04863513   2.03353608  -0.91201485 
H   -2.34897802   0.95471627   0.03873453 
H   -0.99163051   2.50648730  -1.20599224 
H   -2.57295196   2.91938826  -0.57923209 
H   -2.40845051   1.70518581  -1.87745589 
*
