! EnGrad PBEh-3c
%output 
xyzfile=True 
end 
%scf 
maxiter 250 
end
%output
Print[P_Hirshfeld] = 1
end
% maxcore
4000
*xyz 0 1
Lu  -0.00827449  -0.23377650   0.20896449 
C    0.49346324   0.63623760   2.59862681 
C    1.57162208  -0.20836108   2.26182078 
C    2.33403059   0.42919056   1.26613623 
C    1.70807679   1.65061144   0.95770355 
C    0.57355853   1.78058238   1.78580325 
H    2.04794073   2.38457018   0.23777247 
H   -0.04300587   2.66072875   1.87406025 
H   -0.21517969   0.46743073   3.39436617 
H    1.79144438  -1.16485130   2.71730259 
H    3.26424781   0.07287684   0.85331886 
C    0.77240286  -0.10911431  -2.31848744 
C   -0.44812945  -0.82254017  -2.28795243 
C    1.12388645  -2.08756793  -1.24351360 
C    1.74660592  -0.90412047  -1.69160884 
H    0.93044963   0.84268853  -2.80117112 
C   -0.23025889  -2.04499163  -1.62724236 
H   -1.35930380  -0.54504314  -2.80176018 
H    2.79712090  -0.67008265  -1.60018241 
H    1.61607706  -2.91147434  -0.74607267 
H   -0.95730851  -2.82702228  -1.50147807 
C   -1.99183659  -1.46461004   1.15020813 
H   -2.32412349  -1.17461335   2.17295288 
H   -1.91585196  -2.57571583   1.22250396 
H   -2.90812427  -1.37069712   0.52485361 
C   -2.02753045   2.07116196  -0.94379926 
H   -2.40801650   0.90712425   0.09435921 
H   -0.98140698   2.54925982  -1.23713903 
H   -2.56028148   2.93717106  -0.60985640 
H   -2.39210305   1.72418378  -1.88842687 
*
