! EnGrad PBEh-3c
%output 
xyzfile=True 
end 
%scf 
maxiter 250 
end
%output
Print[P_Hirshfeld] = 1
end
% maxcore
4000
*xyz 0 1
Lu  -0.05306575  -0.24306246   0.21744316 
C    0.49369246   0.66092973   2.59718971 
C    1.55684414  -0.20347428   2.25992866 
C    2.32708775   0.42054225   1.25815025 
C    1.72873690   1.65693557   0.95859123 
C    0.59033937   1.80260521   1.78119794 
H    2.07796239   2.38072479   0.23882660 
H   -0.03503500   2.67996380   1.84914366 
H   -0.22961872   0.49189884   3.37701322 
H    1.76359899  -1.15891262   2.71422912 
H    3.26036083   0.05551466   0.85664963 
C    0.79009211  -0.10806753  -2.33283978 
C   -0.43623377  -0.81378448  -2.31527019 
C    1.11518667  -2.07794038  -1.23353487 
C    1.74980892  -0.90059367  -1.68217428 
H    0.95941545   0.84705172  -2.81314001 
C   -0.23342455  -2.03212094  -1.64619067 
H   -1.34712984  -0.51956886  -2.81357593 
H    2.80221151  -0.67677793  -1.59314400 
H    1.59790039  -2.90515347  -0.73781130 
H   -0.97468303  -2.80339543  -1.49846459 
C   -1.99443901  -1.46869786   1.14699905 
H   -2.30870929  -1.19599358   2.17080658 
H   -1.89022011  -2.57381956   1.21199955 
H   -2.93598182  -1.38719345   0.56565039 
C   -2.03601661   2.00872185  -0.89066588 
H   -2.31940899   0.98380186   0.00444668 
H   -1.01523002   2.47632968  -1.18541238 
H   -2.58140220   2.90683951  -0.56042420 
H   -2.42169879   1.69437279  -1.86994078 
*
