! EnGrad PBEh-3c
%output 
xyzfile=True 
end 
%scf 
maxiter 250 
end
%output
Print[P_Hirshfeld] = 1
end
% maxcore
4000
*xyz 0 1
Lu  -0.05327849  -0.23906175   0.21212284 
C    0.48929990   0.67251705   2.59105445 
C    1.54587778  -0.19965020   2.25663963 
C    2.32439795   0.41814583   1.25725361 
C    1.73497337   1.65738622   0.95283698 
C    0.59886615   1.81477738   1.77631467 
H    2.09999476   2.38043739   0.23894034 
H   -0.02506908   2.69527444   1.83466347 
H   -0.23909060   0.51073457   3.36793349 
H    1.74443485  -1.15740320   2.71354343 
H    3.25637298   0.04366243   0.85862738 
C    0.79857454  -0.10472969  -2.33797907 
C   -0.43060905  -0.80498193  -2.32739781 
C    1.10951797  -2.07158191  -1.23053927 
C    1.75168342  -0.89933819  -1.67804617 
H    0.97944866   0.84637728  -2.82188080 
C   -0.23733230  -2.02198655  -1.65374956 
H   -1.33769011  -0.50379220  -2.82658982 
H    2.80551518  -0.68171837  -1.58710471 
H    1.58588140  -2.90175579  -0.72952408 
H   -0.98338825  -2.78643248  -1.50087925 
C   -2.01085154  -1.47695732   1.15148135 
H   -2.29642351  -1.21027567   2.17585721 
H   -1.87795902  -2.57087224   1.20191771 
H   -2.95413787  -1.39721855   0.59105029 
C   -2.03019122   1.97466101  -0.86455657 
H   -2.27471358   1.02225773  -0.04399367 
H   -1.04512561   2.43245550  -1.15580079 
H   -2.58769820   2.87555811  -0.53231007 
H   -2.43918508   1.67933396  -1.84819932 
*
