! EnGrad PBEh-3c
%output 
xyzfile=True 
end 
%scf 
maxiter 250 
end
%output
Print[P_Hirshfeld] = 1
end
% maxcore
4000
*xyz 0 1
Lu  -0.07140067  -0.23569596   0.20511287 
C    0.47791637   0.71066722   2.57554318 
C    1.51656852  -0.19115170   2.24820454 
C    2.31666207   0.40759266   1.25194496 
C    1.75770642   1.66111629   0.94127297 
C    0.62126029   1.85025636   1.76106991 
H    2.16049473   2.37844674   0.24045420 
H    0.00235688   2.73539680   1.79344773 
H   -0.26665448   0.56197741   3.33999443 
H    1.69052196  -1.14991165   2.70994434 
H    3.24318790   0.01134632   0.86433163 
C    0.82713493  -0.09612408  -2.35397402 
C   -0.41071231  -0.78211544  -2.36310969 
C    1.09060127  -2.05686006  -1.22023707 
C    1.75563681  -0.89282140  -1.66751982 
H    1.03533087   0.84516633  -2.84660294 
C   -0.24525304  -1.99536859  -1.67526063 
H   -1.31374384  -0.45801748  -2.86174309 
H    2.81440736  -0.69445727  -1.57003266 
H    1.55062520  -2.88916745  -0.70802999 
H   -1.00885229  -2.73901913  -1.50619291 
C   -2.03140084  -1.48454962   1.15177363 
H   -2.26724589  -1.24702492   2.20023232 
H   -1.84266736  -2.57073930   1.17326174 
H   -3.01865114  -1.42258045   0.65902265 
C   -2.07257404   1.88942286  -0.80647100 
H   -2.14384824   1.11420670  -0.16723996 
H   -1.08605588   2.32041471  -1.07888807 
H   -2.59565431   2.77330124  -0.45283256 
H   -2.48040171   1.63700089  -1.77630927 
*
