! EnGrad PBEh-3c
%output 
xyzfile=True 
end 
%scf 
maxiter 250 
end
%output
Print[P_Hirshfeld] = 1
end
% maxcore
4000
*xyz 0 1
Lu  -0.06365434  -0.24462859   0.20705050 
C    0.47451624   0.71675573   2.56947197 
C    1.50674409  -0.18536365   2.24353943 
C    2.31166989   0.40577383   1.25328447 
C    1.75833068   1.65795605   0.93701679 
C    0.62487468   1.85443464   1.75400497 
H    2.17500750   2.37792010   0.23955005 
H    0.00900518   2.74554014   1.78356810 
H   -0.27563978   0.57403822   3.33414685 
H    1.67855133  -1.15067514   2.71182566 
H    3.23770328   0.00201051   0.86324189 
C    0.83136635  -0.09075356  -2.35505598 
C   -0.40854496  -0.77435225  -2.36826093 
C    1.08574127  -2.05067879  -1.21993399 
C    1.75608487  -0.89378002  -1.66271412 
H    1.04864042   0.84287654  -2.85084588 
C   -0.24966719  -1.99141670  -1.67745901 
H   -1.30807434  -0.44689114  -2.87016890 
H    2.81404193  -0.69578996  -1.56287108 
H    1.54217053  -2.88710238  -0.70116977 
H   -1.01416928  -2.72690325  -1.50851589 
C   -2.03152985  -1.48251597   1.15102052 
H   -2.25551288  -1.25305268   2.20544334 
H   -1.82974578  -2.56730398   1.16441089 
H   -3.02661857  -1.42476259   0.67100585 
C   -2.07067071   1.94458283  -0.85713979 
H   -2.11745742   1.09153435  -0.15405541 
H   -1.09733971   2.27742906  -1.04730034 
H   -2.60202120   2.74009983  -0.42753180 
H   -2.49659836   1.62183046  -1.75543473 
*
