! EnGrad PBEh-3c
%output 
xyzfile=True 
end 
%scf 
maxiter 250 
end
%output
Print[P_Hirshfeld] = 1
end
% maxcore
4000
*xyz 0 1
Lu  -0.05845675  -0.25353909   0.20820424 
C    0.46522021   0.73213787   2.56078686 
C    1.49078541  -0.18326720   2.24037185 
C    2.30678914   0.40111917   1.25156889 
C    1.76560593   1.65777772   0.92755913 
C    0.63067212   1.86682354   1.74218368 
H    2.20170109   2.37508534   0.24048985 
H    0.02303574   2.76373564   1.76469413 
H   -0.29031970   0.59770527   3.32050989 
H    1.65389221  -1.14656577   2.71165568 
H    3.22722467  -0.01428886   0.86347043 
C    0.84161708  -0.08616245  -2.35743933 
C   -0.40210836  -0.76173475  -2.37956864 
C    1.07749881  -2.04497250  -1.21617531 
C    1.75679467  -0.89155790  -1.65682152 
H    1.07466085   0.84131834  -2.86123568 
C   -0.25466876  -1.97685782  -1.68527763 
H   -1.29649444  -0.42567623  -2.88648920 
H    2.81498306  -0.69958399  -1.55083295 
H    1.52472637  -2.88027415  -0.69012522 
H   -1.02674418  -2.70603451  -1.51233422 
C   -2.03676905  -1.47991333   1.15161963 
H   -2.23558057  -1.26682309   2.21423888 
H   -1.80963034  -2.56099813   1.14732644 
H   -3.04637881  -1.43105669   0.69860051 
C   -2.07657336   1.94037420  -0.86119562 
H   -2.06778314   1.09020848  -0.16992634 
H   -1.09025902   2.22676237  -1.01153013 
H   -2.62175993   2.70432774  -0.37698671 
H   -2.53174433   1.59318207  -1.74283273 
*
