21
Generated by autodE on: 2023-07-07. E = -25.428368 Ha
Sc    1.89662  -1.17502  -2.05833
C     0.39682  -0.49983   0.18757
N    -0.46523  -1.29046   0.86955
C    -0.76784  -0.75609   2.09132
C    -0.07541   0.40449   2.18932
N     0.62823   0.53921   1.02497
C     1.46815   1.66743   0.71840
H     2.14507   1.87208   1.54844
H     0.86189   2.55865   0.53993
H     2.06064   1.44798  -0.18081
C    -1.02414  -2.52095   0.37349
H    -0.58317  -2.75492  -0.60409
H    -2.10659  -2.43074   0.26251
H    -0.81566  -3.33971   1.06405
H    -1.43259  -1.23111   2.78227
H    -0.02886   1.12258   2.98126
C    -0.42384   1.26820  -2.75575
H    -0.40686   0.88329  -3.77144
H    -1.13279   2.08590  -2.71756
H    -0.75671   0.49315  -2.05836
H     0.56228   1.65589  -2.48674
