21
Coordinates from ORCA-job reaction-5-prod-pbeh3c-orca_opt E -1104.470051600119
  Sc     -0.395120     -0.256010     -2.236240
  C      -0.070050     -0.348740      0.208790
  N      -0.438970     -1.388160      1.003810
  C      -0.210630     -1.105330      2.317500
  C       0.321970      0.140600      2.363200
  N       0.399790      0.581950      1.075190
  C       0.935780      1.874490      0.729300
  H       0.338230      2.663690      1.188340
  H       0.925950      1.998250     -0.360350
  H       1.960900      1.962000      1.092400
  C      -1.017940     -2.632610      0.553480
  H      -0.540960     -2.965610     -0.376250
  H      -2.093730     -2.520350      0.385350
  H      -0.865660     -3.394260      1.316670
  H      -0.435140     -1.791830      3.107530
  H       0.643890      0.729110      3.197190
  C       0.332200      1.764420     -3.035020
  H       0.153670      1.826720     -4.127150
  H       1.409470      1.997410     -2.941760
  H      -0.160040      2.675160     -2.645120
  H      -1.193610     -1.810900     -2.816850
21
Coordinates from ORCA-job reaction-5-prod-pbeh3c-orca_opt E -1104.480037697191
  Sc     -0.354607     -0.239614     -2.146517
  C      -0.062170     -0.339134      0.204736
  N      -0.435347     -1.373583      0.985271
  C      -0.205165     -1.098462      2.301666
  C       0.327390      0.145422      2.350368
  N       0.403159      0.587338      1.061302
  C       0.937610      1.885221      0.698255
  H       0.341089      2.677120      1.146924
  H       0.922632      2.000546     -0.381902
  H       1.963379      1.979453      1.048622
  C      -1.029328     -2.611201      0.511537
  H      -0.561572     -2.929822     -0.416892
  H      -2.098926     -2.491232      0.347125
  H      -0.879822     -3.389575      1.254046
  H      -0.431863     -1.791522      3.093949
  H       0.653553      0.735002      3.190354
  C       0.315579      1.717490     -2.972215
  H       0.135122      1.756119     -4.056398
  H       1.383691      1.946042     -2.868298
  H      -0.198535      2.604500     -2.581241
  H      -1.125869     -1.770108     -2.770680
21
Coordinates from ORCA-job reaction-5-prod-pbeh3c-orca_opt E -1104.485647759174
  Sc     -0.312896     -0.204587     -2.047103
  C      -0.056595     -0.317920      0.202490
  N      -0.431306     -1.356846      0.966200
  C      -0.206362     -1.093629      2.287539
  C       0.328837      0.148116      2.348184
  N       0.409446      0.600150      1.061287
  C       0.949579      1.902368      0.700220
  H       0.352615      2.693625      1.147127
  H       0.936214      2.023838     -0.376540
  H       1.976103      1.991848      1.046879
  C      -1.033379     -2.586225      0.465458
  H      -0.568298     -2.886978     -0.468180
  H      -2.101081     -2.458890      0.305375
  H      -0.882883     -3.382697      1.188016
  H      -0.436597     -1.793818      3.073726
  H       0.655963      0.728775      3.195143
  C       0.285680      1.648718     -2.941975
  H       0.095043      1.643825     -4.022417
  H       1.353379      1.870071     -2.833670
  H      -0.253588      2.519821     -2.553439
  H      -1.059875     -1.689565     -2.744309
21
Coordinates from ORCA-job reaction-5-prod-pbeh3c-orca_opt E -1104.486735375981
  Sc     -0.212009     -0.217089     -2.045766
  C      -0.024110     -0.319407      0.208194
  N      -0.438957     -1.347279      0.969736
  C      -0.237041     -1.083470      2.294348
  C       0.323277      0.146931      2.362718
  N       0.442381      0.592715      1.076993
  C       1.019386      1.882132      0.727746
  H       0.428128      2.686594      1.158594
  H       1.035667      2.003986     -0.349915
  H       2.039358      1.948387      1.098390
  C      -1.065733     -2.561803      0.462433
  H      -0.599058     -2.873102     -0.467556
  H      -2.128886     -2.408005      0.293574
  H      -0.939168     -3.361966      1.185694
  H      -0.499888     -1.774991      3.077736
  H       0.644490      0.722400      3.215268
  C       0.198630      1.648988     -2.970706
  H       0.025204      1.609813     -4.053568
  H       1.238967      1.972921     -2.844209
  H      -0.434930      2.461120     -2.593728
  H      -0.815705     -1.728874     -2.805965
21
Coordinates from ORCA-job reaction-5-prod-pbeh3c-orca_opt E -1104.487754107399
  Sc     -0.216160     -0.177294     -2.040987
  C      -0.041655     -0.298077      0.234414
  N      -0.427592     -1.348624      0.986721
  C      -0.207322     -1.109342      2.311945
  C       0.335855      0.128183      2.397364
  N       0.425041      0.603542      1.120854
  C       0.971576      1.910717      0.797415
  H       0.372903      2.691654      1.260889
  H       0.963493      2.066682     -0.278860
  H       1.998348      1.984044      1.148743
  C      -1.055937     -2.556283      0.469042
  H      -0.631478     -2.823172     -0.496794
  H      -2.130408     -2.417019      0.364228
  H      -0.873445     -3.378802      1.154694
  H      -0.444868     -1.821014      3.084234
  H       0.664435      0.687539      3.256916
  C       0.239148      1.596476     -3.071336
  H       0.005248      1.537851     -4.142139
  H       1.305633      1.853359     -2.998400
  H      -0.324142      2.452083     -2.672843
  H      -0.928672     -1.582502     -2.886089
21
Coordinates from ORCA-job reaction-5-prod-pbeh3c-orca_opt E -1104.488049152742
  Sc     -0.131271     -0.204107     -2.057217
  C      -0.019003     -0.305173      0.243129
  N      -0.435292     -1.344098      0.994894
  C      -0.238311     -1.099061      2.322568
  C       0.324469      0.129544      2.409997
  N       0.448350      0.592281      1.131971
  C       1.024540      1.885292      0.808414
  H       0.433285      2.681614      1.255284
  H       1.037417      2.031538     -0.269289
  H       2.046308      1.943640      1.176892
  C      -1.075984     -2.542854      0.474857
  H      -0.653911     -2.812759     -0.491060
  H      -2.148488     -2.390935      0.368661
  H      -0.904314     -3.369262      1.158920
  H      -0.503706     -1.800695      3.094781
  H       0.645450      0.689652      3.271664
  C       0.180951      1.617990     -3.091242
  H      -0.036122      1.538785     -4.163610
  H       1.218203      1.972696     -3.010559
  H      -0.457289      2.424688     -2.703681
  H      -0.755285     -1.638776     -2.925365
21
Coordinates from ORCA-job reaction-5-prod-pbeh3c-orca_opt E -1104.488207776570
  Sc     -0.099780     -0.219287     -2.058522
  C      -0.012749     -0.307461      0.247213
  N      -0.429296     -1.346437      0.996459
  C      -0.239688     -1.100129      2.325301
  C       0.317837      0.130749      2.414305
  N       0.445350      0.592912      1.135913
  C       1.013375      1.889228      0.811412
  H       0.417440      2.682865      1.256910
  H       1.025218      2.033788     -0.266078
  H       2.034452      1.956191      1.180338
  C      -1.065006     -2.545920      0.473054
  H      -0.655526     -2.800350     -0.502266
  H      -2.140323     -2.404463      0.384220
  H      -0.874551     -3.379192      1.143756
  H      -0.506881     -1.802032      3.096759
  H       0.631287      0.693586      3.277037
  C       0.201194      1.610976     -3.096227
  H      -0.059258      1.536789     -4.158741
  H       1.243913      1.955064     -3.057607
  H      -0.409364      2.427020     -2.685629
  H      -0.837644     -1.603897     -2.917596
21
Coordinates from ORCA-job reaction-5-prod-pbeh3c-orca_opt E -1104.488465294694
  Sc     -0.019865     -0.253698     -2.058955
  C       0.009076     -0.314239      0.247781
  N      -0.422277     -1.347186      0.993519
  C      -0.255437     -1.093292      2.324849
  C       0.302184      0.137235      2.415708
  N       0.451494      0.591645      1.135824
  C       1.018271      1.888129      0.808544
  H       0.416684      2.683127      1.243760
  H       1.037442      2.025837     -0.269188
  H       2.035642      1.963471      1.186088
  C      -1.055145     -2.545528      0.465084
  H      -0.664130     -2.780677     -0.522378
  H      -2.133054     -2.414444      0.398015
  H      -0.842974     -3.388645      1.116784
  H      -0.538515     -1.789676      3.095878
  H       0.599379      0.706382      3.280272
  C       0.209103      1.600174     -3.084630
  H      -0.113614      1.526554     -4.129745
  H       1.245511      1.961896     -3.107820
  H      -0.385648      2.408307     -2.639069
  H      -0.894124     -1.565371     -2.900311
21
Coordinates from ORCA-job reaction-5-prod-pbeh3c-orca_opt E -1104.488748446157
  Sc      0.069415     -0.293273     -2.058213
  C       0.037067     -0.324125      0.241140
  N      -0.416021     -1.347252      0.984694
  C      -0.278609     -1.079912      2.317981
  C       0.282463      0.148614      2.408629
  N       0.462888      0.589451      1.126715
  C       1.033515      1.883474      0.794114
  H       0.426876      2.682581      1.214250
  H       1.063375      2.011054     -0.284103
  H       2.045826      1.965688      1.183747
  C      -1.047661     -2.545232      0.454705
  H      -0.678719     -2.763257     -0.544962
  H      -2.127642     -2.424158      0.410629
  H      -0.812894     -3.396682      1.087699
  H      -0.584535     -1.766250      3.089563
  H       0.560034      0.727132      3.273766
  C       0.209107      1.589586     -3.049048
  H      -0.170863      1.510240     -4.074765
  H       1.229463      1.984941     -3.129856
  H      -0.382602      2.379207     -2.570190
  H      -0.920484     -1.531828     -2.876487
21
Coordinates from ORCA-job reaction-5-prod-pbeh3c-orca_opt E -1104.488944714619
  Sc      0.165533     -0.329461     -2.050933
  C       0.074595     -0.339535      0.222101
  N      -0.413284     -1.345784      0.965749
  C      -0.312658     -1.054869      2.299599
  C       0.259806      0.167542      2.385962
  N       0.484823      0.584999      1.101559
  C       1.067834      1.871812      0.757961
  H       0.459974      2.679482      1.158914
  H       1.107429      1.985085     -0.321173
  H       2.074864      1.956898      1.160503
  C      -1.052097     -2.543538      0.444194
  H      -0.727282     -2.743019     -0.574436
  H      -2.133896     -2.432487      0.441336
  H      -0.782845     -3.403655      1.051548
  H      -0.652881     -1.722645      3.073434
  H       0.515039      0.760326      3.248671
  C       0.194078      1.585653     -2.965102
  H      -0.223561      1.475675     -3.975674
  H       1.180528      2.047922     -3.089028
  H      -0.429480      2.335934     -2.467340
  H      -0.856521     -1.536336     -2.867835
21
Coordinates from ORCA-job reaction-5-prod-pbeh3c-orca_opt E -1104.489105598039
  Sc      0.268718     -0.362099     -2.068382
  C       0.102935     -0.347206      0.214588
  N      -0.410410     -1.342317      0.956997
  C      -0.342595     -1.038678      2.289547
  C       0.234550      0.181356      2.378307
  N       0.495638      0.583536      1.096417
  C       1.095389      1.862677      0.756663
  H       0.485296      2.677817      1.139373
  H       1.157700      1.968309     -0.322282
  H       2.094493      1.942795      1.179353
  C      -1.044471     -2.541109      0.434463
  H      -0.727331     -2.731689     -0.588500
  H      -2.127072     -2.436834      0.441542
  H      -0.764165     -3.402648      1.034915
  H      -0.705883     -1.696850      3.060941
  H       0.471797      0.781068      3.241106
  C       0.178427      1.573998     -2.946506
  H      -0.292142      1.457932     -3.932859
  H       1.135566      2.079216     -3.120824
  H      -0.446187      2.292809     -2.404320
  H      -0.860253     -1.502083     -2.840528
21
Coordinates from ORCA-job reaction-5-prod-pbeh3c-orca_opt E -1104.489235911080
  Sc      0.255123     -0.328097     -2.092072
  C       0.095241     -0.341109      0.218262
  N      -0.421587     -1.336151      0.966049
  C      -0.352155     -1.037209      2.296645
  C       0.230988      0.179991      2.389450
  N       0.496746      0.582862      1.111810
  C       1.120797      1.853429      0.792156
  H       0.522084      2.673017      1.184729
  H       1.190779      1.974874     -0.285861
  H       2.120101      1.903334      1.218836
  C      -1.055442     -2.536705      0.449603
  H      -0.749187     -2.720621     -0.578495
  H      -2.138798     -2.435799      0.474553
  H      -0.761876     -3.394177      1.049679
  H      -0.713757     -1.697742      3.066069
  H       0.477278      0.771905      3.254308
  C       0.145283      1.588008     -2.995795
  H      -0.297595      1.453479     -3.993265
  H       1.099958      2.106841     -3.149152
  H      -0.511982      2.290774     -2.465891
  H      -0.752000     -1.550903     -2.911607
21
Coordinates from ORCA-job reaction-5-prod-pbeh3c-orca_opt E -1104.489406672845
  Sc      0.298134     -0.341996     -2.087295
  C       0.116399     -0.351611      0.206211
  N      -0.420539     -1.335088      0.953432
  C      -0.372877     -1.021609      2.282294
  C       0.215687      0.193092      2.372171
  N       0.504345      0.581686      1.094553
  C       1.135835      1.848267      0.769657
  H       0.536910      2.672644      1.150813
  H       1.213039      1.961558     -0.308550
  H       2.131942      1.898438      1.203775
  C      -1.052763     -2.538998      0.440869
  H      -0.763521     -2.714203     -0.593231
  H      -2.136090     -2.446089      0.481794
  H      -0.743254     -3.397604      1.031526
  H      -0.753692     -1.670909      3.052202
  H       0.447963      0.794726      3.234429
  C       0.141403      1.585636     -2.945965
  H      -0.339484      1.445624     -3.925912
  H       1.079056      2.122066     -3.134701
  H      -0.507969      2.270702     -2.386984
  H      -0.730522     -1.556334     -2.891076
21
Coordinates from ORCA-job reaction-5-prod-pbeh3c-orca_opt E -1104.489494688352
  Sc      0.337886     -0.346151     -2.084648
  C       0.133297     -0.356144      0.200671
  N      -0.422720     -1.330040      0.944719
  C      -0.397858     -1.006829      2.271743
  C       0.196261      0.205359      2.363082
  N       0.510686      0.582007      1.087898
  C       1.160030      1.840905      0.766120
  H       0.566451      2.672881      1.138324
  H       1.249811      1.950913     -0.311415
  H       2.152257      1.880585      1.210181
  C      -1.047169     -2.537945      0.429879
  H      -0.765073     -2.701801     -0.607745
  H      -2.130723     -2.455170      0.480069
  H      -0.724763     -3.396888      1.013200
  H      -0.797451     -1.647729      3.039277
  H       0.415294      0.812980      3.224750
  C       0.123780      1.581802     -2.926471
  H      -0.398624      1.438198     -3.884381
  H       1.045115      2.130536     -3.153916
  H      -0.509471      2.251958     -2.333420
  H      -0.697018     -1.569425     -2.867908
21
Coordinates from ORCA-job reaction-5-prod-pbeh3c-orca_opt E -1104.489593042282
  Sc      0.368483     -0.343418     -2.083359
  C       0.149650     -0.361943      0.196404
  N      -0.427387     -1.325269      0.937240
  C      -0.426455     -0.991311      2.261607
  C       0.172267      0.218832      2.354494
  N       0.513397      0.582977      1.082567
  C       1.184220      1.832357      0.766625
  H       0.600343      2.672950      1.134268
  H       1.284875      1.942692     -0.310180
  H       2.173725      1.855642      1.217812
  C      -1.038441     -2.540743      0.421090
  H      -0.771127     -2.686553     -0.622798
  H      -2.122080     -2.476920      0.490678
  H      -0.691237     -3.398579      0.991807
  H      -0.845711     -1.623138      3.026196
  H       0.375826      0.833226      3.215199
  C       0.106306      1.581178     -2.918609
  H      -0.470305      1.444626     -3.845427
  H       1.015563      2.127935     -3.194072
  H      -0.489972      2.243553     -2.280287
  H      -0.661939     -1.588093     -2.841245
21
Coordinates from ORCA-job reaction-5-prod-pbeh3c-orca_opt E -1104.489656240737
  Sc      0.392161     -0.340172     -2.083139
  C       0.159819     -0.364658      0.194537
  N      -0.432371     -1.321140      0.932442
  C      -0.449820     -0.978718      2.254705
  C       0.152738      0.229142      2.349506
  N       0.515668      0.583871      1.080770
  C       1.204636      1.824400      0.769897
  H       0.632607      2.671951      1.140204
  H       1.307469      1.938508     -0.306484
  H       2.194233      1.831786      1.221461
  C      -1.032861     -2.542552      0.417279
  H      -0.796084     -2.665725     -0.636854
  H      -2.114894     -2.501590      0.520936
  H      -0.650632     -3.400860      0.964585
  H      -0.883951     -1.603787      3.016513
  H       0.344960      0.847947      3.209624
  C       0.092127      1.579934     -2.918112
  H      -0.511839      1.446110     -3.827149
  H       0.990856      2.131713     -3.217546
  H      -0.486526      2.234686     -2.255354
  H      -0.628295     -1.600844     -2.827810
21
Coordinates from ORCA-job reaction-5-prod-pbeh3c-orca_opt E -1104.489742306110
  Sc      0.416535     -0.339020     -2.083728
  C       0.169862     -0.368403      0.193030
  N      -0.440669     -1.316230      0.927574
  C      -0.476627     -0.964068      2.247403
  C       0.130207      0.240853      2.343826
  N       0.515448      0.585491      1.078504
  C       1.223094      1.815824      0.771806
  H       0.670484      2.669936      1.156535
  H       1.315380      1.940281     -0.304656
  H       2.217644      1.802174      1.212369
  C      -1.027197     -2.545926      0.416599
  H      -0.859512     -2.628412     -0.654940
  H      -2.100764     -2.548182      0.591861
  H      -0.578314     -3.404170      0.911215
  H      -0.926662     -1.581380      3.006237
  H       0.309955      0.864926      3.202734
  C       0.083812      1.577417     -2.919513
  H      -0.537286      1.452363     -3.817360
  H       0.974397      2.137069     -3.229505
  H      -0.483561      2.222715     -2.236540
  H      -0.596224     -1.613254     -2.813440
21
Coordinates from ORCA-job reaction-5-prod-pbeh3c-orca_opt E -1104.489818237254
  Sc      0.404702     -0.344075     -2.086613
  C       0.161872     -0.369917      0.192302
  N      -0.449371     -1.315976      0.928515
  C      -0.490331     -0.957558      2.247021
  C       0.115201      0.247680      2.340639
  N       0.505099      0.587465      1.075101
  C       1.218672      1.812820      0.764952
  H       0.685949      2.668296      1.174084
  H       1.283651      1.950265     -0.311939
  H       2.223925      1.784726      1.180123
  C      -1.016796     -2.557111      0.425198
  H      -0.928317     -2.601980     -0.658409
  H      -2.073339     -2.611641      0.677751
  H      -0.496508     -3.408322      0.858575
  H      -0.941929     -1.572397      3.006926
  H       0.290685      0.875613      3.197570
  C       0.102627      1.579421     -2.923594
  H      -0.506533      1.480110     -3.832029
  H       1.005869      2.131279     -3.211115
  H      -0.464360      2.226508     -2.240930
  H      -0.630769     -1.605205     -2.804118
21
Coordinates from ORCA-job reaction-5-prod-pbeh3c-orca_opt E -1104.489918513261
  Sc      0.365595     -0.352227     -2.088280
  C       0.142726     -0.366383      0.196450
  N      -0.458158     -1.316154      0.936005
  C      -0.483899     -0.963080      2.256529
  C       0.117662      0.244177      2.346909
  N       0.490464      0.590247      1.077826
  C       1.193948      1.819047      0.760281
  H       0.681368      2.667871      1.207247
  H       1.212627      1.975817     -0.315503
  H       2.215409      1.783605      1.133702
  C      -1.011963     -2.563781      0.436316
  H      -1.017522     -2.567458     -0.652203
  H      -2.039613     -2.674456      0.774648
  H      -0.422165     -3.406612      0.790331
  H      -0.923699     -1.582570      3.019564
  H       0.299653      0.870682      3.203497
  C       0.138789      1.577124     -2.938836
  H      -0.414266      1.501768     -3.884290
  H       1.067235      2.116877     -3.163459
  H      -0.457261      2.233537     -2.290233
  H      -0.696929     -1.588031     -2.806491
21
Coordinates from ORCA-job reaction-5-prod-pbeh3c-orca_opt E -1104.489984189139
  Sc      0.333142     -0.361466     -2.086685
  C       0.122566     -0.356437      0.201640
  N      -0.465164     -1.312994      0.942713
  C      -0.471981     -0.971336      2.266144
  C       0.126762      0.237677      2.356413
  N       0.479337      0.594576      1.084843
  C       1.169324      1.830286      0.763745
  H       0.675474      2.668540      1.249734
  H       1.141331      2.008375     -0.308221
  H       2.205195      1.789426      1.094855
  C      -1.011568     -2.561942      0.439900
  H      -1.114899     -2.522643     -0.643115
  H      -2.000371     -2.727791      0.860483
  H      -0.363449     -3.395084      0.704618
  H      -0.898513     -1.598206      3.030705
  H       0.318620      0.859315      3.214434
  C       0.172782      1.565125     -2.953980
  H      -0.315247      1.490588     -3.934892
  H       1.117110      2.099567     -3.116947
  H      -0.462492      2.231105     -2.354644
  H      -0.757956     -1.566680     -2.811732
21
Coordinates from ORCA-job reaction-5-prod-pbeh3c-orca_opt E -1104.490013467315
  Sc      0.311873     -0.367409     -2.086514
  C       0.112440     -0.353211      0.201559
  N      -0.463735     -1.314880      0.945366
  C      -0.458969     -0.978519      2.269652
  C       0.135743      0.233266      2.358025
  N       0.473277      0.596036      1.084520
  C       1.149909      1.838983      0.760343
  H       0.654288      2.670998      1.254921
  H       1.108915      2.019122     -0.310872
  H       2.189498      1.804349      1.080025
  C      -1.009581     -2.563650      0.440106
  H      -1.123627     -2.518164     -0.641489
  H      -1.992985     -2.736738      0.869977
  H      -0.355908     -3.395595      0.694521
  H      -0.875642     -1.609596      3.036169
  H       0.333370      0.853310      3.215911
  C       0.194686      1.561689     -2.952185
  H      -0.275228      1.485849     -3.942246
  H       1.149185      2.081814     -3.100294
  H      -0.444513      2.238197     -2.369714
  H      -0.812995     -1.545852     -2.807769
21
Coordinates from ORCA-job reaction-5-prod-pbeh3c-orca_opt E -1104.490031342902
  Sc      0.323958     -0.370622     -2.085529
  C       0.116975     -0.353432      0.199161
  N      -0.464067     -1.313016      0.942260
  C      -0.463291     -0.975224      2.265858
  C       0.133368      0.235933      2.354765
  N       0.475974      0.596302      1.082220
  C       1.155193      1.838864      0.759638
  H       0.659934      2.670947      1.254211
  H       1.116033      2.019133     -0.311626
  H       2.194389      1.801075      1.080092
  C      -1.009835     -2.562015      0.435815
  H      -1.137199     -2.509620     -0.643982
  H      -1.987441     -2.741554      0.876287
  H      -0.350009     -3.392299      0.679586
  H      -0.884742     -1.603999      3.031656
  H       0.328458      0.857216      3.212344
  C       0.192143      1.560226     -2.943353
  H      -0.275808      1.472780     -3.933725
  H       1.141253      2.089333     -3.092353
  H      -0.456880      2.228110     -2.362593
  H      -0.808405     -1.548140     -2.800723
21
Coordinates from ORCA-job reaction-5-prod-pbeh3c-orca_opt E -1104.490032758588
  Sc      0.323266     -0.369161     -2.084424
  C       0.116719     -0.352781      0.199855
  N      -0.464575     -1.312574      0.942484
  C      -0.464378     -0.974937      2.266065
  C       0.132804      0.235977      2.355555
  N       0.476128      0.596354      1.083209
  C       1.156714      1.838448      0.761286
  H       0.661846      2.670784      1.255683
  H       1.118758      2.018652     -0.310031
  H       2.195751      1.799325      1.082188
  C      -1.009162     -2.561814      0.434822
  H      -1.139020     -2.507212     -0.644519
  H      -1.985265     -2.743946      0.877525
  H      -0.347392     -3.391244      0.676149
  H      -0.886568     -1.603526      3.031621
  H       0.327642      0.856976      3.213403
  C       0.190922      1.560989     -2.945851
  H      -0.273836      1.469867     -3.937297
  H       1.139994      2.090559     -3.092692
  H      -0.460928      2.227851     -2.367444
  H      -0.809422     -1.548587     -2.797577
21
Coordinates from ORCA-job reaction-5-prod-pbeh3c-orca_opt E -1104.490034196128
  Sc      0.320835     -0.367546     -2.084187
  C       0.116272     -0.353133      0.200498
  N      -0.464852     -1.313189      0.943131
  C      -0.464452     -0.975517      2.266690
  C       0.131969      0.235718      2.356237
  N       0.475220      0.596169      1.083855
  C       1.155582      1.838347      0.761898
  H       0.660116      2.670669      1.255693
  H       1.118494      2.018000     -0.309590
  H       2.194493      1.799508      1.083277
  C      -1.007953     -2.563088      0.435347
  H      -1.143195     -2.506363     -0.643162
  H      -1.981190     -2.749123      0.882704
  H      -0.342501     -3.390875      0.672181
  H      -0.886405     -1.604107      3.032381
  H       0.326207      0.856780      3.214166
  C       0.193225      1.562423     -2.949038
  H      -0.271563      1.469673     -3.940231
  H       1.143949      2.088845     -3.096113
  H      -0.457215      2.230875     -2.370910
  H      -0.817036     -1.544064     -2.794817
21
Coordinates from ORCA-job reaction-5-prod-pbeh3c-orca_opt E -1104.490034490128
  Sc      0.319638     -0.366450     -2.083945
  C       0.116129     -0.353395      0.200964
  N      -0.464764     -1.313638      0.943530
  C      -0.464544     -0.975857      2.267091
  C       0.131859      0.235316      2.356747
  N       0.475076      0.595897      1.084336
  C       1.155145      1.838155      0.762212
  H       0.658419      2.670717      1.254383
  H       1.119687      2.016747     -0.309496
  H       2.193566      1.800382      1.085262
  C      -1.007510     -2.563627      0.435786
  H      -1.144374     -2.506422     -0.642500
  H      -1.979918     -2.750737      0.884486
  H      -0.341034     -3.391012      0.671151
  H      -0.886388     -1.604471      3.032827
  H       0.326059      0.856255      3.214771
  C       0.194157      1.563254     -2.950416
  H      -0.271614      1.468801     -3.940992
  H       1.145292      2.088426     -3.098991
  H      -0.455228      2.233150     -2.372765
  H      -0.819654     -1.541491     -2.794431
