! EnGrad PBEh-3c
%output 
xyzfile=True 
end 
%scf 
maxiter 250 
end
%output
Print[P_Hirshfeld] = 1
end
% maxcore
4000
*xyz -1 1
Pt  -1.09651242  -0.94846071   0.57196411 
Cl  -0.28016202  -0.66151147   2.72013929 
Cl  -2.70207285  -2.33227828   1.16912682 
Cl  -1.70388110  -1.02959027  -1.65570384 
C    1.15508536   0.92424505  -0.47217408 
H    1.45820456   1.93626945  -0.14589477 
H    1.21629484   0.24929702   0.16925447 
H    1.78683630   0.69682326  -1.35280233 
H    0.16264442   1.16587082  -1.00492381 
*
