! EnGrad PBEh-3c
%output 
xyzfile=True 
end 
%scf 
maxiter 250 
end
%output
Print[P_Hirshfeld] = 1
end
% maxcore
4000
*xyz -1 1
Pt  -1.08850792  -0.94280642   0.56773897 
Cl  -0.27784379  -0.65242141   2.71544278 
Cl  -2.70180187  -2.32590619   1.17028364 
Cl  -1.69303397  -1.03374908  -1.65795755 
C    1.13576739   0.99755565  -0.55222569 
H    1.45955358   1.91661066  -0.13161316 
H    1.21106664   0.18733328   0.21209501 
H    1.77619801   0.69764454  -1.34750940 
H    0.17416346   1.15655703  -0.97734654 
*
