! EnGrad PBEh-3c
%output 
xyzfile=True 
end 
%scf 
maxiter 250 
end
%output
Print[P_Hirshfeld] = 1
end
% maxcore
4000
*xyz -1 1
Pt  -1.08516576  -0.94019009   0.56606993 
Cl  -0.27716476  -0.64950830   2.71303809 
Cl  -2.70364379  -2.32513182   1.17194275 
Cl  -1.68921412  -1.03473630  -1.65885551 
C    1.13626652   0.99427278  -0.55281902 
H    1.46404434   1.91849520  -0.12290594 
H    1.20444406   0.18722329   0.20668077 
H    1.77844426   0.69731831  -1.35324446 
H    0.16677500   1.15322046  -0.97108031 
*
