! EnGrad PBEh-3c
%output 
xyzfile=True 
end 
%scf 
maxiter 250 
end
%output
Print[P_Hirshfeld] = 1
end
% maxcore
4000
*xyz -1 1
Pt  -1.07572062  -0.93183072   0.55807875 
Cl  -0.26973132  -0.63086756   2.70161822 
Cl  -2.71524403  -2.32028323   1.18357899 
Cl  -1.66811915  -1.03904254  -1.67052787 
C    1.13790153   0.98507446  -0.55672153 
H    1.48858273   1.91498466  -0.07805295 
H    1.17432628   0.18645689   0.18739952 
H    1.79111276   0.70018700  -1.38683874 
H    0.12427181   1.13734375  -0.94043434 
*
