! EnGrad PBEh-3c
%output 
xyzfile=True 
end 
%scf 
maxiter 250 
end
%output
Print[P_Hirshfeld] = 1
end
% maxcore
4000
*xyz 1 1
Sc   1.60930102  -1.17076072  -1.58957852 
C    0.40803846  -0.59817496   0.24632948 
N   -0.47209254  -1.35291467   0.91367826 
C   -0.80737998  -0.76420241   2.10742426 
C   -0.14615915   0.41164383   2.15563636 
N    0.57437023   0.50657744   0.97636220 
C    1.43373744   1.62575474   0.62701722 
H    1.52199589   2.30050385   1.46020168 
H    1.00487145   2.17413469  -0.23883132 
H    2.43829196   1.26250841   0.37118431 
C   -0.98441107  -2.66605363   0.55481544 
H   -0.58507504  -2.96298575  -0.41532595 
H   -2.07023065  -2.64513580   0.48146473 
H   -0.69237556  -3.41064664   1.29755083 
H   -1.46212361  -1.21431195   2.84928225 
H   -0.14024986   1.19632376   2.90660839 
C   -0.30093492   1.54717679  -2.90360615 
H   -1.06060755   1.68364678  -3.73562097 
H    0.37346490   2.41760255  -2.94665384 
H   -0.80975228   1.56958702  -1.93155955 
H    0.17025596   0.09285750  -3.18832528 
*
