! EnGrad PBEh-3c
%output 
xyzfile=True 
end 
%scf 
maxiter 250 
end
%output
Print[P_Hirshfeld] = 1
end
% maxcore
4000
*xyz 1 1
Sc   1.47988952  -1.07287307  -1.69859981 
C    0.41243431  -0.60322952   0.24346015 
N   -0.46603752  -1.35681165   0.94245722 
C   -0.80201855  -0.75277835   2.12271172 
C   -0.13894667   0.42412405   2.15895731 
N    0.58694529   0.50178368   1.00847142 
C    1.42699943   1.62027908   0.62137442 
H    1.47886709   2.32604452   1.45456362 
H    1.03701944   2.13785983  -0.24505657 
H    2.43756755   1.27402413   0.41842831 
C   -0.97166700  -2.66008183   0.54543008 
H   -0.58630954  -2.94174470  -0.42949620 
H   -2.05722395  -2.64441005   0.48341312 
H   -0.66838170  -3.40643042   1.27395729 
H   -1.46876800  -1.21141021   2.82958609 
H   -0.12729845   1.17792312   2.92007459 
C   -0.28792961   1.46235950  -2.91417749 
H   -0.97117738   1.61061587  -3.72702540 
H    0.41058165   2.34711264  -2.93897625 
H   -0.83126015   1.57631234  -1.96342999 
H    0.11046107   0.19794815  -3.10806800 
*
