! EnGrad PBEh-3c
%output 
xyzfile=True 
end 
%scf 
maxiter 250 
end
%output
Print[P_Hirshfeld] = 1
end
% maxcore
4000
*xyz 0 1
Pd   0.39428355   0.12929172  -0.28054362 
O    1.92631304   1.38755782   0.66410132 
C    1.77574811   2.57261903   0.37475321 
O    0.64594949   2.90833861  -0.15457185 
C    2.75715443   3.67477836   0.61286449 
H    2.31750276   4.57333956   1.04332048 
H    3.17365254   3.96454560  -0.35392771 
H    3.55489297   3.32288721   1.25941082 
N   -1.38926996  -0.79367681  -0.94315005 
C   -1.22693468  -1.96495898  -1.83243904 
H   -0.71360104  -1.74831659  -2.76310864 
H   -2.19291673  -2.33058667  -2.21415323 
H   -0.63832399  -2.69653909  -1.29146589 
C   -2.03807990   0.21731904  -1.78762683 
H   -2.21121192   1.14808525  -1.26025066 
H   -3.02727425  -0.10699266  -2.14086810 
H   -1.44249278   0.45564139  -2.66463897 
C   -1.57229930  -1.13397762   1.44195815 
C   -1.51210074  -2.20652341   2.32517874 
C   -1.34551200  -2.05204061   3.68929607 
C   -1.01101786  -0.80350768   4.17454331 
C   -1.21565313   0.28209975   3.33546890 
C   -1.48913970   0.14217065   1.98759416 
H   -0.82703447  -0.66802096   5.23268034 
H   -1.01644623   1.24598753   3.78831867 
H   -1.93401836  -3.17864793   2.06973957 
H   -1.40261913  -2.87368050   4.39357132 
H   -1.67103160   3.78902932   1.15703538 
C   -2.32149669  -1.19629945   0.14389021 
H   -3.24329433  -0.59618445   0.20712175 
H   -2.77671190  -2.19376364   0.05245524 
O    1.86118088  -0.03017708  -1.56366578 
C    2.23455424  -0.37291752  -2.72571634 
O    1.59025731  -1.23584756  -3.29118784 
C    3.69055007  -0.40756158  -3.10104357 
H    4.10825198  -1.39561281  -3.31950494 
H    4.35932601  -0.07546347  -2.30565044 
H    3.82885809   0.24760623  -3.95977384 
*
