! EnGrad PBEh-3c
%output 
xyzfile=True 
end 
%scf 
maxiter 250 
end
%output
Print[P_Hirshfeld] = 1
end
% maxcore
4000
*xyz 0 1
Pd   0.39195556   0.14075694  -0.26491765 
O    1.93349984   1.36240394   0.66713242 
C    1.73550599   2.59248094   0.36141210 
O    0.66002547   2.90884355  -0.14803460 
C    2.76509531   3.66883728   0.61481424 
H    2.31851898   4.57040926   1.04389084 
H    3.17635422   3.96166375  -0.35296768 
H    3.55845121   3.32132614   1.25982105 
N   -1.39575680  -0.79884665  -0.95961546 
C   -1.22232101  -1.97334882  -1.82981371 
H   -0.70282929  -1.75339365  -2.75205073 
H   -2.19011463  -2.33848121  -2.20210437 
H   -0.64131264  -2.70416827  -1.28133711 
C   -2.04016769   0.21892441  -1.79447031 
H   -2.20806031   1.14575756  -1.26654413 
H   -3.02282451  -0.11567171  -2.14502640 
H   -1.43630183   0.44427829  -2.66868132 
C   -1.58862281  -1.12536957   1.44416704 
C   -1.53461384  -2.21613929   2.33318361 
C   -1.34525392  -2.05078564   3.69111133 
C   -1.02125932  -0.80713719   4.17471257 
C   -1.19435369   0.29137813   3.33279174 
C   -1.46835073   0.13488605   1.99254278 
H   -0.82418396  -0.66847657   5.23177079 
H   -0.99838840   1.24343608   3.78244380 
H   -1.95041289  -3.17474765   2.06749517 
H   -1.41906877  -2.87286027   4.39414499 
H   -1.65263820   3.79163788   1.14923318 
C   -2.32181282  -1.19913443   0.15074469 
H   -3.23562305  -0.58337511   0.20552885 
H   -2.77882789  -2.18921249   0.04658129 
O    1.86512774   0.00004411  -1.55872812 
C    2.22848239  -0.41540466  -2.71590128 
O    1.58628841  -1.24769505  -3.29710244 
C    3.69804655  -0.38214767  -3.10190981 
H    4.09984317  -1.38254207  -3.32889650 
H    4.35534531  -0.05812506  -2.31187513 
H    3.82083796   0.25925056  -3.96390679 
*
