! EnGrad PBEh-3c
%output 
xyzfile=True 
end 
%scf 
maxiter 250 
end
%output
Print[P_Hirshfeld] = 1
end
% maxcore
4000
*xyz 0 1
Pd   0.39224645   0.17175317  -0.22327471 
O    1.93791673   1.33055654   0.66452297 
C    1.67974538   2.59940725   0.35253655 
O    0.66317636   2.92125350  -0.14639228 
C    2.77553752   3.65533353   0.61747090 
H    2.32331400   4.56152631   1.04478150 
H    3.18404310   3.95385834  -0.35045256 
H    3.56882527   3.31464970   1.26230024 
N   -1.41113542  -0.81126026  -0.99122110 
C   -1.21251117  -1.99470553  -1.82267270 
H   -0.67367808  -1.76718121  -2.72489150 
H   -2.18303775  -2.36036625  -2.17156803 
H   -0.64886456  -2.72460778  -1.25448058 
C   -2.04424981   0.21823699  -1.81405977 
H   -2.20015803   1.14166640  -1.28190971 
H   -3.01317570  -0.13748745  -2.15725446 
H   -1.42052962   0.41549943  -2.67976013 
C   -1.62845336  -1.11581864   1.45702100 
C   -1.59056189  -2.22588811   2.34878687 
C   -1.34881203  -2.05398202   3.69466395 
C   -1.04489700  -0.80697566   4.17552208 
C   -1.13996115   0.30481207   3.32767930 
C   -1.41341450   0.11980694   2.00525089 
H   -0.81719955  -0.67000631   5.22845117 
H   -0.94866603   1.24325484   3.76930980 
H   -1.99582279  -3.17015850   2.06032080 
H   -1.46144151  -2.87052723   4.39579919 
H   -1.60479996   3.79761031   1.12913758 
C   -2.32483562  -1.20043388   0.15886072 
H   -3.21487346  -0.55082469   0.20118960 
H   -2.78493936  -2.17912849   0.03187126 
O    1.87542352   0.07103495  -1.55988274 
C    2.22551759  -0.50239963  -2.67658788 
O    1.56813690  -1.29044213  -3.31435276 
C    3.70618464  -0.33090788  -3.10485016 
H    4.07904182  -1.34368187  -3.35298257 
H    4.34862830  -0.00945289  -2.32309875 
H    3.79942530   0.29312102  -3.97714430 
*
