27
Generated by autodE on: 2023-07-13. E = -2061.540099 Ha
Pd   -1.89828  -1.46969   0.50340
Cl   -2.61026  -3.39911  -0.56688
Cl    0.23037  -5.25633  -0.24088
Cl   -3.56162  -1.62193   2.20585
N    -1.13880   0.25672   1.32628
C    -1.54032   0.86835   2.42249
C    -0.94894   2.05710   2.86144
C     0.07886   2.61270   2.13717
C    -0.12638   0.78451   0.60298
C     0.51964   1.97506   0.97080
H     0.54865   3.53538   2.45791
H    -2.35846   0.39314   2.95085
H    -1.31385   2.52317   3.76602
C     0.24408   0.05837  -0.55899
C     1.57631   2.44817   0.13078
C     1.94017   1.76141  -0.98013
C     1.29170   0.54331  -1.36357
H     2.08272   3.36723   0.40073
H     2.74558   2.13549  -1.60203
C    -0.47856  -1.12519  -0.83559
C     1.64209  -0.19906  -2.49917
C    -0.09110  -1.82152  -1.96762
C     0.95509  -1.36048  -2.77996
H     2.44614   0.14047  -3.14146
H     1.23140  -1.93967  -3.65341
H    -0.86687  -4.53036  -0.30969
H    -0.59936  -2.73724  -2.23732
27
Generated by autodE on: 2023-07-13. E = -2061.539420 Ha
Pd   -1.89516  -1.47546   0.49700
Cl   -2.65966  -3.39614  -0.54328
Cl    0.20420  -5.19121  -0.15867
Cl   -3.59285  -1.56013   2.15162
N    -1.12995   0.23611   1.32996
C    -1.53214   0.84593   2.42739
C    -0.94576   2.03672   2.86527
C     0.07689   2.59633   2.13786
C    -0.12144   0.76583   0.60426
C     0.51748   1.96002   0.97115
H     0.54287   3.52158   2.45588
H    -2.34890   0.37050   2.95709
H    -1.31141   2.50148   3.77020
C     0.25202   0.04143  -0.55874
C     1.56743   2.44211   0.12923
C     1.93088   1.76141  -0.98489
C     1.29054   0.53920  -1.36742
H     2.06779   3.36387   0.40011
H     2.73010   2.14311  -1.60992
C    -0.45966  -1.14927  -0.83495
C     1.64248  -0.19301  -2.50892
C    -0.06823  -1.83578  -1.97231
C     0.96678  -1.36006  -2.79156
H     2.43951   0.15884  -3.15338
H     1.24298  -1.93025  -3.67148
H    -0.86192  -4.42785  -0.30629
H    -0.56526  -2.75614  -2.24574
27
Generated by autodE on: 2023-07-13. E = -2061.539174 Ha
Pd   -1.92462  -1.46730   0.46843
Cl   -2.67508  -3.36279  -0.62671
Cl    0.21399  -5.02430  -0.03226
Cl   -3.69334  -1.52037   2.07340
N    -1.11707   0.20981   1.32625
C    -1.51229   0.80935   2.43033
C    -0.92663   1.99883   2.87235
C     0.08795   2.56929   2.14140
C    -0.10575   0.74201   0.60572
C     0.53118   1.93791   0.97284
H     0.54031   3.50295   2.45492
H    -2.32962   0.32753   2.95259
H    -1.29701   2.45919   3.77704
C     0.26349   0.02274  -0.55950
C     1.56875   2.43459   0.12277
C     1.92805   1.75928  -0.99588
C     1.29603   0.52961  -1.37197
H     2.05828   3.36457   0.38820
H     2.71376   2.15427  -1.63105
C    -0.45398  -1.16420  -0.83776
C     1.64034  -0.19423  -2.52035
C    -0.05344  -1.85155  -1.97192
C     0.97403  -1.36756  -2.79625
H     2.41510   0.17372  -3.18254
H     1.24658  -1.93016  -3.68208
H    -0.90908  -4.36160  -0.22908
H    -0.53929  -2.77744  -2.24373
27
Generated by autodE on: 2023-07-13. E = -2061.538359 Ha
Pd   -1.93059  -1.46597   0.43943
Cl   -2.71454  -3.34005  -0.67209
Cl    0.21092  -4.88773   0.08727
Cl   -3.75095  -1.47476   1.98772
N    -1.10733   0.18841   1.32496
C    -1.50103   0.77870   2.43429
C    -0.91600   1.96740   2.87983
C     0.09282   2.54513   2.14618
C    -0.09706   0.72387   0.60591
C     0.53634   1.91965   0.97536
H     0.53925   3.48252   2.45582
H    -2.31887   0.29671   2.95760
H    -1.28346   2.42568   3.78654
C     0.27248   0.00992  -0.56283
C     1.56511   2.42412   0.12028
C     1.92195   1.75584  -1.00343
C     1.29744   0.52397  -1.37975
H     2.04724   3.35856   0.38016
H     2.69622   2.15847  -1.64534
C    -0.44163  -1.17919  -0.84192
C     1.63694  -0.19260  -2.53320
C    -0.03910  -1.86586  -1.97596
C     0.97952  -1.37179  -2.80467
H     2.40011   0.18552  -3.20253
H     1.24965  -1.93161  -3.69165
H    -0.93140  -4.28781  -0.17546
H    -0.51807  -2.79663  -2.24607
27
Generated by autodE on: 2023-07-13. E = -2061.537259 Ha
Pd   -1.94497  -1.46288   0.41185
Cl   -2.75610  -3.32061  -0.71162
Cl    0.20270  -4.75399   0.21650
Cl   -3.80711  -1.42828   1.90844
N    -1.09820   0.16674   1.32319
C    -1.48983   0.74968   2.43824
C    -0.90623   1.93760   2.88860
C     0.09616   2.52239   2.15147
C    -0.08968   0.70547   0.60385
C     0.53804   1.90314   0.97635
H     0.54092   3.46024   2.46240
H    -2.30812   0.26796   2.95991
H    -1.27006   2.39140   3.79968
C     0.27959  -0.00431  -0.56890
C     1.56016   2.41617   0.11709
C     1.91369   1.75363  -1.01118
C     1.29610   0.51893  -1.38963
H     2.03808   3.35263   0.37732
H     2.68120   2.16307  -1.65829
C    -0.42989  -1.19545  -0.84963
C     1.63340  -0.19174  -2.54823
C    -0.02514  -1.88216  -1.98328
C     0.98538  -1.37833  -2.81643
H     2.39061   0.19672  -3.22007
H     1.25507  -1.93491  -3.70650
H    -0.94708  -4.20894  -0.12535
H    -0.50189  -2.81609  -2.25066
27
Generated by autodE on: 2023-07-13. E = -2061.535908 Ha
Pd   -1.96549  -1.45829   0.38545
Cl   -2.79565  -3.30529  -0.74228
Cl    0.18301  -4.61994   0.36605
Cl   -3.85364  -1.37948   1.83545
N    -1.09598   0.14818   1.31842
C    -1.48060   0.72413   2.43924
C    -0.89567   1.90820   2.89770
C     0.10094   2.49903   2.15733
C    -0.08927   0.68890   0.59896
C     0.53652   1.88793   0.97403
H     0.54728   3.43315   2.47766
H    -2.29879   0.24078   2.95895
H    -1.25459   2.35294   3.81616
C     0.27902  -0.01755  -0.57771
C     1.55256   2.40852   0.11247
C     1.90301   1.75232  -1.02154
C     1.29010   0.51326  -1.40182
H     2.03172   3.34318   0.38083
H     2.66882   2.16742  -1.66621
C    -0.42674  -1.21079  -0.86175
C     1.63000  -0.19418  -2.56294
C    -0.01573  -1.89457  -1.99616
C     0.99164  -1.38646  -2.83295
H     2.38576   0.20094  -3.23254
H     1.26342  -1.94067  -3.72507
H    -0.94977  -4.12449  -0.07607
H    -0.49204  -2.82942  -2.26098
27
Generated by autodE on: 2023-07-13. E = -2061.535243 Ha
Pd   -2.01507  -1.43046   0.33313
Cl   -2.78545  -3.30110  -0.79374
Cl    0.13538  -4.42665   0.68585
Cl   -3.89586  -1.31587   1.79805
N    -1.13830   0.15642   1.27492
C    -1.49176   0.69746   2.42230
C    -0.87142   1.85060   2.91019
C     0.12281   2.44999   2.17524
C    -0.12822   0.69608   0.56147
C     0.52347   1.87036   0.96466
H     0.59391   3.36198   2.52361
H    -2.30566   0.20869   2.94274
H    -1.20352   2.26808   3.84958
C     0.23563  -0.00287  -0.62095
C     1.54108   2.38858   0.10677
C     1.88695   1.74219  -1.03309
C     1.26883   0.51130  -1.42501
H     2.03778   3.30687   0.39100
H     2.66081   2.15832  -1.66673
C    -0.47743  -1.18913  -0.91420
C     1.62916  -0.21250  -2.56896
C    -0.05619  -1.88534  -2.03708
C     0.98111  -1.39645  -2.84590
H     2.40485   0.16032  -3.22661
H     1.27483  -1.95669  -3.72645
H    -0.92461  -4.01029   0.03240
H    -0.53727  -2.81464  -2.31578
27
Generated by autodE on: 2023-07-13. E = -2061.533306 Ha
Pd   -2.02941  -1.43028   0.31641
Cl   -2.81694  -3.30256  -0.79409
Cl    0.09596  -4.30113   0.82260
Cl   -3.94194  -1.26123   1.73996
N    -1.14215   0.14114   1.26760
C    -1.48786   0.67243   2.42148
C    -0.86258   1.81924   2.91638
C     0.12770   2.42230   2.17891
C    -0.13235   0.68124   0.55435
C     0.52263   1.85159   0.96282
H     0.60196   3.33112   2.52935
H    -2.30101   0.18232   2.94205
H    -1.18856   2.22912   3.86114
C     0.23064  -0.01277  -0.63158
C     1.53779   2.37688   0.10590
C     1.88118   1.73779  -1.03886
C     1.26400   0.50693  -1.43319
H     2.03125   3.29699   0.39145
H     2.64993   2.15930  -1.67535
C    -0.47961  -1.20155  -0.92588
C     1.62870  -0.21079  -2.57942
C    -0.05066  -1.89122  -2.05140
C     0.98630  -1.39702  -2.85906
H     2.40430   0.16683  -3.23530
H     1.28431  -1.95449  -3.74024
H    -0.90992  -3.90737   0.08826
H    -0.52508  -2.82215  -2.33509
27
Generated by autodE on: 2023-07-13. E = -2061.530984 Ha
Pd   -2.06295  -1.41892   0.27746
Cl   -2.83823  -3.31127  -0.81143
Cl    0.04657  -4.10612   1.05116
Cl   -3.98763  -1.19769   1.66629
N    -1.16211   0.13035   1.24554
C    -1.49076   0.64013   2.41528
C    -0.84663   1.76990   2.92775
C     0.13973   2.37786   2.18887
C    -0.15007   0.67030   0.53510
C     0.51867   1.82705   0.95828
H     0.62922   3.27511   2.54879
H    -2.30318   0.14925   2.93626
H    -1.15350   2.16285   3.88727
C     0.20946  -0.01528  -0.65661
C     1.53433   2.35776   0.10481
C     1.87324   1.72743  -1.04566
C     1.25126   0.50246  -1.44911
H     2.02781   3.27686   0.39459
H     2.63993   2.15137  -1.68305
C    -0.50306  -1.20136  -0.95745
C     1.62675  -0.21536  -2.59211
C    -0.06573  -1.89009  -2.08092
C     0.98313  -1.39950  -2.87677
H     2.41633   0.15650  -3.23560
H     1.29270  -1.96220  -3.75062
H    -0.88371  -3.77191   0.19839
H    -0.54138  -2.81846  -2.37220
27
Generated by autodE on: 2023-07-13. E = -2061.527634 Ha
Pd   -2.07874  -1.42535   0.26796
Cl   -2.87061  -3.33025  -0.78723
Cl    0.00902  -3.96956   1.16962
Cl   -4.02885  -1.14367   1.60318
N    -1.16193   0.11009   1.24375
C    -1.48670   0.61384   2.41720
C    -0.83999   1.73934   2.93323
C     0.14251   2.35000   2.19100
C    -0.14952   0.64937   0.53244
C     0.51913   1.80513   0.95824
H     0.63572   3.24497   2.54830
H    -2.30015   0.12395   2.93692
H    -1.14019   2.12586   3.89706
C     0.20911  -0.03074  -0.66368
C     1.53168   2.34495   0.10555
C     1.86923   1.72026  -1.04795
C     1.24794   0.49608  -1.45479
H     2.01784   3.26872   0.39580
H     2.63167   2.14794  -1.69008
C    -0.50012  -1.21702  -0.96976
C     1.62647  -0.21149  -2.60299
C    -0.05893  -1.89576  -2.09872
C     0.98799  -1.39744  -2.89380
H     2.41989   0.16902  -3.23802
H     1.30122  -1.95689  -3.76928
H    -0.86376  -3.64023   0.25620
H    -0.53084  -2.82519  -2.39371
27
Generated by autodE on: 2023-07-13. E = -2061.525331 Ha
Pd   -2.08319  -1.46046   0.23217
Cl   -2.84102  -3.36189  -0.82422
Cl    0.19638  -3.78441   1.37510
Cl   -4.06830  -1.14068   1.50055
N    -1.17317   0.08374   1.23921
C    -1.52537   0.60853   2.39635
C    -0.87328   1.72811   2.92193
C     0.13691   2.31801   2.19938
C    -0.13313   0.60145   0.55205
C     0.53768   1.75620   0.98108
H     0.62848   3.21330   2.55927
H    -2.36494   0.14187   2.89664
H    -1.18783   2.12514   3.87771
C     0.23286  -0.08093  -0.64190
C     1.56450   2.28787   0.13872
C     1.90327   1.66382  -1.01561
C     1.26883   0.44915  -1.43469
H     2.04545   3.21478   0.43066
H     2.66515   2.09211  -1.65757
C    -0.49263  -1.25105  -0.97497
C     1.61224  -0.22676  -2.61420
C    -0.09169  -1.89653  -2.13776
C     0.94334  -1.38663  -2.94273
H     2.39386   0.17172  -3.25201
H     1.21460  -1.90934  -3.85561
H    -0.52970  -3.23063   0.44891
H    -0.60020  -2.80069  -2.44787
27
Generated by autodE on: 2023-07-13. E = -2061.523066 Ha
Pd   -2.09640  -1.47022   0.22920
Cl   -2.87627  -3.37875  -0.79053
Cl    0.19564  -3.67753   1.45354
Cl   -4.08819  -1.10466   1.46459
N    -1.17160   0.06203   1.23524
C    -1.52281   0.58805   2.39075
C    -0.87122   1.70723   2.91752
C     0.13922   2.29938   2.19993
C    -0.13016   0.57909   0.55268
C     0.53594   1.73606   0.98186
H     0.62963   3.19581   2.56149
H    -2.36601   0.12705   2.88733
H    -1.19472   2.11053   3.86664
C     0.23606  -0.09939  -0.64272
C     1.55612   2.27303   0.14042
C     1.89609   1.65513  -1.01493
C     1.26668   0.44045  -1.43416
H     2.04485   3.19088   0.44038
H     2.66407   2.08223  -1.64871
C    -0.48882  -1.26830  -0.98389
C     1.61058  -0.22469  -2.61697
C    -0.08849  -1.90239  -2.15244
C     0.94313  -1.38097  -2.95292
H     2.38992   0.18018  -3.25254
H     1.21477  -1.88881  -3.87133
H    -0.45393  -3.07914   0.49736
H    -0.58843  -2.80808  -2.47228
27
Generated by autodE on: 2023-07-13. E = -2061.519135 Ha
Pd   -2.09251  -1.49424   0.24962
Cl   -2.93989  -3.39488  -0.73059
Cl    0.18761  -3.63311   1.43976
Cl   -4.08858  -1.07410   1.44810
N    -1.15565   0.03496   1.24776
C    -1.51445   0.57046   2.39733
C    -0.87767   1.70220   2.91461
C     0.12976   2.29292   2.19410
C    -0.12096   0.55652   0.55851
C     0.53474   1.72244   0.98238
H     0.61284   3.19705   2.54548
H    -2.35794   0.11178   2.89424
H    -1.21719   2.12076   3.85250
C     0.24555  -0.12069  -0.63790
C     1.55231   2.26786   0.14418
C     1.89153   1.65327  -1.01212
C     1.26648   0.43678  -1.43204
H     2.03755   3.18718   0.44664
H     2.65620   2.08458  -1.64697
C    -0.46965  -1.29889  -0.97639
C     1.61204  -0.21441  -2.62195
C    -0.06312  -1.91961  -2.15182
C     0.95596  -1.37626  -2.95846
H     2.38344   0.20378  -3.25972
H     1.22663  -1.86988  -3.88423
H    -0.39981  -2.95586   0.47616
H    -0.54767  -2.83115  -2.47815
27
Generated by autodE on: 2023-07-13. E = -2061.513890 Ha
Pd   -2.10018  -1.51676   0.25508
Cl   -2.99588  -3.41057  -0.69463
Cl    0.16386  -3.48509   1.49840
Cl   -4.11179  -1.01480   1.39487
N    -1.14965   0.00502   1.25548
C    -1.51409   0.54322   2.40255
C    -0.88580   1.68224   2.91318
C     0.12457   2.27153   2.19317
C    -0.11260   0.52458   0.56762
C     0.53873   1.69345   0.98948
H     0.60052   3.18250   2.53507
H    -2.35447   0.08101   2.90326
H    -1.22951   2.10622   3.84480
C     0.25796  -0.14789  -0.63216
C     1.55149   2.24814   0.15075
C     1.88760   1.64476  -1.01222
C     1.26585   0.42583  -1.43280
H     2.02878   3.17074   0.45792
H     2.64344   2.08672  -1.65168
C    -0.44316  -1.33433  -0.97316
C     1.60271  -0.21018  -2.63311
C    -0.03789  -1.93950  -2.15983
C     0.95983  -1.37693  -2.97885
H     2.36016   0.22807  -3.27438
H     1.22727  -1.85731  -3.91584
H    -0.31930  -2.77854   0.48834
H    -0.50613  -2.86112  -2.48341
27
Generated by autodE on: 2023-07-13. E = -2061.506937 Ha
Pd   -2.10090  -1.53346   0.28176
Cl   -3.00195  -3.41094  -0.68756
Cl    0.10862  -3.36888   1.51062
Cl   -4.11975  -0.95016   1.34524
N    -1.14443  -0.01590   1.26866
C    -1.51611   0.53184   2.41018
C    -0.89421   1.67674   2.91516
C     0.11757   2.26136   2.19562
C    -0.10285   0.49684   0.58243
C     0.54054   1.67197   0.99853
H     0.58742   3.17708   2.53364
H    -2.35450   0.07261   2.91521
H    -1.24208   2.10452   3.84597
C     0.27694  -0.17748  -0.61657
C     1.54980   2.22829   0.15785
C     1.87717   1.63614  -1.01360
C     1.26140   0.41418  -1.43406
H     2.02502   3.14955   0.46776
H     2.61956   2.09185  -1.65870
C    -0.40180  -1.37713  -0.95242
C     1.58047  -0.20491  -2.65017
C    -0.01055  -1.96953  -2.14975
C     0.95049  -1.37919  -2.99372
H     2.31876   0.24935  -3.30208
H     1.19809  -1.84627  -3.94310
H    -0.25044  -2.68076   0.40147
H    -0.46463  -2.90270  -2.45810
27
Generated by autodE on: 2023-07-13. E = -2061.496936 Ha
Pd   -2.09952  -1.56055   0.31503
Cl   -3.02219  -3.41570  -0.66631
Cl    0.05588  -3.28674   1.51941
Cl   -4.13625  -0.88737   1.26326
N    -1.12815  -0.04265   1.29072
C    -1.50921   0.51933   2.42097
C    -0.89459   1.67048   2.91992
C     0.11624   2.25224   2.19728
C    -0.08594   0.46673   0.60054
C     0.54368   1.65367   1.00673
H     0.57965   3.17406   2.52793
H    -2.35603   0.07225   2.92220
H    -1.24982   2.10664   3.84295
C     0.30111  -0.20810  -0.59857
C     1.54441   2.21733   0.16037
C     1.86757   1.63097  -1.01444
C     1.25950   0.40550  -1.43199
H     2.01824   3.14056   0.46792
H     2.60183   2.09120  -1.66429
C    -0.34529  -1.42804  -0.92522
C     1.56586  -0.19723  -2.66027
C     0.01849  -1.99203  -2.14529
C     0.94338  -1.37460  -3.00885
H     2.29000   0.27229  -3.31898
H     1.17287  -1.82412  -3.96990
H    -0.21979  -2.58059   0.32854
H    -0.42877  -2.93151  -2.44675
27
Generated by autodE on: 2023-07-13. E = -2061.489798 Ha
Pd   -2.13148  -1.58503   0.36085
Cl   -3.09291  -3.27589  -0.81056
Cl    0.12810  -3.19574   1.69515
Cl   -4.14703  -0.89894   1.21238
N    -1.13324  -0.05298   1.30090
C    -1.51627   0.51071   2.42595
C    -0.88677   1.64894   2.93368
C     0.12615   2.23319   2.21658
C    -0.07687   0.44789   0.62215
C     0.54861   1.64150   1.01883
H     0.59048   3.14986   2.55952
H    -2.37189   0.07018   2.91693
H    -1.23508   2.07451   3.86317
C     0.33468  -0.22729  -0.56989
C     1.54072   2.20864   0.15967
C     1.84770   1.63347  -1.02573
C     1.24276   0.40357  -1.43702
H     2.02390   3.12809   0.46662
H     2.57886   2.09707  -1.67844
C    -0.18299  -1.50760  -0.86519
C     1.52943  -0.21417  -2.66562
C     0.07302  -2.05389  -2.10721
C     0.91939  -1.39982  -3.01046
H     2.23433   0.25199  -3.34267
H     1.13142  -1.84957  -3.97234
H    -0.31506  -2.26262   0.03268
H    -0.36498  -3.01298  -2.34953
