27
Generated by autodE on: 2023-07-13. E = -2061.545669 Ha
Pd   -2.44659  -1.63153   0.80274
Cl   -4.22706  -2.91186   0.21375
Cl   -1.45858  -3.37397   1.98667
Cl   -3.29440   0.23608  -0.27989
N    -0.89211  -0.34937   1.43289
C    -1.13275   0.12091   2.64055
C    -0.64559   1.34875   3.08813
C     0.07284   2.11701   2.21172
C    -0.05529   0.31409   0.60825
C     0.38803   1.60936   0.94569
H     0.41138   3.10960   2.48430
H    -1.76317  -0.48641   3.27593
H    -0.88378   1.68983   4.08535
C     0.42302  -0.29522  -0.61300
C     1.11689   2.38290  -0.00745
C     1.42729   1.87043  -1.21530
C     1.12571   0.51081  -1.53579
H     1.39438   3.39699   0.25347
H     1.95329   2.46988  -1.94848
C     0.30207  -1.67043  -0.87804
C     1.58287  -0.04969  -2.73988
C     0.78299  -2.19968  -2.05187
C     1.40292  -1.38412  -3.00326
H     2.09782   0.58561  -3.45071
H     1.76277  -1.80931  -3.93149
H    -0.12550  -2.33908  -0.14383
H     0.68054  -3.26158  -2.23046
27
Generated by autodE on: 2023-07-13. E = -2061.545499 Ha
Pd   -2.42400  -1.65753   0.80551
Cl   -4.17888  -2.95320   0.17277
Cl   -1.37548  -3.44020   1.89521
Cl   -3.33834   0.22029  -0.20046
N    -0.89593  -0.33715   1.44117
C    -1.15060   0.14996   2.63894
C    -0.66263   1.37939   3.08140
C     0.07111   2.13679   2.20851
C    -0.05678   0.32147   0.61440
C     0.38989   1.61907   0.94716
H     0.41808   3.12722   2.48098
H    -1.79407  -0.44630   3.27125
H    -0.90573   1.72659   4.07514
C     0.41782  -0.29352  -0.60634
C     1.13485   2.38364  -0.00097
C     1.44774   1.86291  -1.20430
C     1.13017   0.50748  -1.52577
H     1.42551   3.39524   0.25812
H     1.98725   2.45173  -1.93580
C     0.28168  -1.66610  -0.88024
C     1.58346  -0.05506  -2.73031
C     0.74998  -2.19624  -2.05808
C     1.38353  -1.38499  -3.00255
H     2.11393   0.57465  -3.43457
H     1.74148  -1.81413  -3.92894
H    -0.14690  -2.34285  -0.15451
H     0.62710  -3.25595  -2.23981
27
Generated by autodE on: 2023-07-13. E = -2061.544951 Ha
Pd   -2.40875  -1.68233   0.80904
Cl   -4.12831  -3.00373   0.12852
Cl   -1.29740  -3.48634   1.79434
Cl   -3.38555   0.20397  -0.11129
N    -0.90301  -0.32430   1.44772
C    -1.17110   0.17775   2.63663
C    -0.68161   1.40842   3.07529
C     0.06756   2.15310   2.20518
C    -0.05616   0.32743   0.62169
C     0.39524   1.62476   0.95065
H     0.42204   3.14190   2.47361
H    -1.82851  -0.40231   3.26952
H    -0.93357   1.76788   4.06312
C     0.41505  -0.29156  -0.59950
C     1.15391   2.37913   0.00500
C     1.47120   1.85367  -1.19524
C     1.13834   0.50213  -1.51761
H     1.45490   3.38752   0.26520
H     2.02542   2.43481  -1.92225
C     0.25870  -1.66097  -0.88008
C     1.58651  -0.06244  -2.72349
C     0.71563  -2.18930  -2.06392
C     1.36550  -1.38683  -3.00449
H     2.13042   0.56418  -3.41966
H     1.71877  -1.81469  -3.93385
H    -0.17015  -2.34053  -0.15790
H     0.57213  -3.24491  -2.25222
27
Generated by autodE on: 2023-07-13. E = -2061.543960 Ha
Pd   -2.39989  -1.70085   0.81079
Cl   -4.07333  -3.06203   0.08279
Cl   -1.22105  -3.52448   1.69366
Cl   -3.43851   0.18961  -0.01693
N    -0.91282  -0.31259   1.45538
C    -1.19438   0.20742   2.63454
C    -0.70212   1.43881   3.06743
C     0.06572   2.16784   2.20041
C    -0.05674   0.33008   0.62904
C     0.40193   1.62637   0.95394
H     0.42348   3.15644   2.46424
H    -1.86671  -0.35699   3.26635
H    -0.96701   1.81158   4.04743
C     0.41391  -0.28974  -0.59271
C     1.17602   2.37163   0.01245
C     1.49792   1.84250  -1.18453
C     1.14916   0.49640  -1.50946
H     1.48422   3.37656   0.27414
H     2.06624   2.41720  -1.90659
C     0.23819  -1.65395  -0.88273
C     1.59215  -0.06813  -2.71625
C     0.68063  -2.18197  -2.07204
C     1.34604  -1.38628  -3.00754
H     2.14805   0.55306  -3.40723
H     1.69198  -1.81350  -3.94007
H    -0.19379  -2.33507  -0.15963
H     0.51371  -3.23272  -2.26622
27
Generated by autodE on: 2023-07-13. E = -2061.543543 Ha
Pd   -2.38534  -1.70486   0.82908
Cl   -3.97219  -3.14209   0.09500
Cl   -1.16641  -3.48556   1.73715
Cl   -3.60964   0.13770   0.14958
N    -0.92909  -0.29655   1.43531
C    -1.24836   0.24126   2.59713
C    -0.76303   1.47377   3.03038
C     0.05023   2.17690   2.18493
C    -0.03984   0.32325   0.62805
C     0.42738   1.61310   0.96178
H     0.41056   3.16646   2.43851
H    -1.95015  -0.30995   3.20689
H    -1.07110   1.87150   3.98655
C     0.43883  -0.29650  -0.59209
C     1.23465   2.34784   0.04442
C     1.56829   1.82229  -1.15113
C     1.19333   0.48706  -1.49672
H     1.53965   3.34943   0.32439
H     2.14924   2.39841  -1.86092
C     0.23308  -1.65151  -0.90305
C     1.60789  -0.06900  -2.71954
C     0.64142  -2.16772  -2.10913
C     1.31215  -1.37082  -3.03882
H     2.17788   0.54601  -3.40563
H     1.62218  -1.78795  -3.98953
H    -0.19740  -2.33811  -0.18702
H     0.43867  -3.20912  -2.31715
27
Generated by autodE on: 2023-07-13. E = -2061.542650 Ha
Pd   -2.38280  -1.74006   0.85368
Cl   -3.92742  -3.21640   0.09606
Cl   -1.06546  -3.46881   1.72938
Cl   -3.69604   0.08059   0.29853
N    -0.95034  -0.28188   1.42622
C    -1.29443   0.28075   2.56962
C    -0.80822   1.51245   3.00179
C     0.04169   2.19429   2.17518
C    -0.03820   0.32283   0.63052
C     0.43965   1.61260   0.96561
H     0.40130   3.18306   2.43516
H    -2.01639  -0.25291   3.17086
H    -1.14675   1.92002   3.94378
C     0.44748  -0.30192  -0.58740
C     1.27988   2.33075   0.06121
C     1.61994   1.80226  -1.12985
C     1.21866   0.47700  -1.48428
H     1.60893   3.32465   0.34079
H     2.22542   2.36864  -1.82885
C     0.21946  -1.65018  -0.91555
C     1.61972  -0.06798  -2.71545
C     0.60591  -2.15229  -2.13432
C     1.28537  -1.35456  -3.05497
H     2.19876   0.54358  -3.39656
H     1.57349  -1.75964  -4.01578
H    -0.21572  -2.33851  -0.20711
H     0.37801  -3.18476  -2.36464
27
Generated by autodE on: 2023-07-13. E = -2061.541252 Ha
Pd   -2.36698  -1.76769   0.87418
Cl   -3.87190  -3.27553   0.09212
Cl   -0.97625  -3.47545   1.68516
Cl   -3.76866   0.02334   0.42967
N    -0.96399  -0.26746   1.42180
C    -1.33142   0.31437   2.54882
C    -0.84410   1.54665   2.97750
C     0.03295   2.21137   2.16602
C    -0.03805   0.32702   0.63337
C     0.44918   1.61512   0.97029
H     0.39925   3.19868   2.42788
H    -2.07267  -0.19995   3.14259
H    -1.20195   1.96758   3.90617
C     0.45021  -0.30187  -0.58232
C     1.31569   2.31791   0.07850
C     1.66209   1.78337  -1.10839
C     1.23737   0.46997  -1.47138
H     1.66371   3.30556   0.35703
H     2.28560   2.33769  -1.79993
C     0.20209  -1.64312  -0.92701
C     1.62531  -0.06979  -2.70880
C     0.57054  -2.13892  -2.15364
C     1.26252  -1.34316  -3.06588
H     2.21761   0.53619  -3.38437
H     1.53360  -1.74309  -4.03310
H    -0.23321  -2.34092  -0.22817
H     0.31846  -3.16211  -2.39643
27
Generated by autodE on: 2023-07-13. E = -2061.539552 Ha
Pd   -2.34596  -1.79373   0.90401
Cl   -3.80971  -3.33739   0.11947
Cl   -0.87842  -3.47481   1.64639
Cl   -3.85499  -0.06342   0.57661
N    -0.97729  -0.25189   1.41726
C    -1.37283   0.35128   2.52425
C    -0.88696   1.58516   2.94681
C     0.02147   2.22841   2.15277
C    -0.03542   0.33015   0.63643
C     0.46019   1.61587   0.97388
H     0.39773   3.21094   2.41547
H    -2.13973  -0.14175   3.10337
H    -1.26462   2.02305   3.85932
C     0.45182  -0.30208  -0.57946
C     1.35899   2.30049   0.09965
C     1.71111   1.75940  -1.08193
C     1.25709   0.46008  -1.45979
H     1.72507   3.28015   0.38531
H     2.35750   2.29813  -1.76397
C     0.17955  -1.63344  -0.94313
C     1.63247  -0.07010  -2.70550
C     0.53320  -2.11869  -2.17827
C     1.23878  -1.32828  -3.08388
H     2.23784   0.53357  -3.36961
H     1.49363  -1.71876  -4.06048
H    -0.25477  -2.33843  -0.25342
H     0.25591  -3.13279  -2.43144
27
Generated by autodE on: 2023-07-13. E = -2061.537785 Ha
Pd   -2.31290  -1.83789   0.95457
Cl   -3.75734  -3.42428   0.22949
Cl   -0.75823  -3.47914   1.61302
Cl   -3.93998  -0.20636   0.74647
N    -0.99333  -0.23281   1.41521
C    -1.41724   0.39935   2.49727
C    -0.92972   1.63619   2.91141
C     0.01553   2.24658   2.13619
C    -0.03661   0.33100   0.63789
C     0.47305   1.61098   0.97572
H     0.40391   3.22540   2.39493
H    -2.21187  -0.07206   3.05551
H    -1.32980   2.09721   3.80457
C     0.44589  -0.29917  -0.58342
C     1.40804   2.27407   0.12381
C     1.76877   1.73219  -1.05425
C     1.27441   0.45471  -1.45052
H     1.79662   3.23732   0.43242
H     2.45470   2.24505  -1.71737
C     0.14402  -1.61575  -0.97277
C     1.63919  -0.06149  -2.70508
C     0.48885  -2.08989  -2.21521
C     1.21562  -1.30229  -3.10818
H     2.26237   0.54571  -3.35095
H     1.46807  -1.67907  -4.09090
H    -0.30530  -2.32195  -0.29252
H     0.19376  -3.09816  -2.47344
27
Generated by autodE on: 2023-07-13. E = -2061.536377 Ha
Pd   -2.28616  -1.94531   1.07116
Cl   -3.62306  -3.64687   0.38098
Cl   -0.60908  -3.49473   1.61695
Cl   -4.04240  -0.44112   0.95047
N    -1.00254  -0.20638   1.41916
C    -1.41510   0.44108   2.49493
C    -0.92623   1.68355   2.89634
C     0.03963   2.27409   2.13103
C    -0.04953   0.35525   0.63117
C     0.49114   1.62372   0.97612
H     0.45364   3.24118   2.39629
H    -2.19855  -0.02779   3.07089
H    -1.32168   2.15259   3.78673
C     0.41213  -0.27310  -0.60031
C     1.45781   2.26173   0.14106
C     1.81911   1.71444  -1.03372
C     1.29150   0.45383  -1.44355
H     1.87981   3.20879   0.45709
H     2.51833   2.22112  -1.68917
C     0.03092  -1.55825  -1.02759
C     1.67171  -0.06785  -2.69121
C     0.40663  -2.04246  -2.25569
C     1.21405  -1.29171  -3.10891
H     2.32534   0.52225  -3.32380
H     1.49035  -1.68422  -4.07817
H    -0.51434  -2.24028  -0.39610
H     0.06698  -3.02933  -2.54052
27
Generated by autodE on: 2023-07-13. E = -2061.534314 Ha
Pd   -2.24801  -1.97796   1.09239
Cl   -3.53020  -3.70351   0.36247
Cl   -0.50442  -3.50163   1.51977
Cl   -4.06724  -0.54776   1.04487
N    -1.01077  -0.19170   1.42911
C    -1.41219   0.45669   2.50932
C    -0.90925   1.69461   2.90846
C     0.05488   2.27973   2.13680
C    -0.06233   0.36860   0.63422
C     0.49258   1.63091   0.97652
H     0.47266   3.24552   2.39990
H    -2.19501  -0.00726   3.09070
H    -1.29492   2.17059   3.79899
C     0.38506  -0.25765  -0.60202
C     1.46164   2.26077   0.13588
C     1.82376   1.70488  -1.03417
C     1.28532   0.44919  -1.43848
H     1.88971   3.20534   0.44992
H     2.53577   2.19229  -1.68992
C    -0.02521  -1.52597  -1.04305
C     1.67770  -0.08761  -2.67460
C     0.35390  -2.02249  -2.26374
C     1.20411  -1.30226  -3.09893
H     2.36266   0.48202  -3.29034
H     1.50079  -1.70682  -4.05632
H    -0.60171  -2.19511  -0.43293
H    -0.02173  -2.99624  -2.54557
27
Generated by autodE on: 2023-07-13. E = -2061.532030 Ha
Pd   -2.18988  -1.98409   1.11184
Cl   -3.33699  -3.74660   0.23911
Cl   -0.32728  -3.36498   1.53623
Cl   -4.10773  -0.70184   1.22017
N    -1.03172  -0.17822   1.42353
C    -1.40979   0.45711   2.51734
C    -0.87853   1.67720   2.93219
C     0.07613   2.26419   2.15081
C    -0.08926   0.37751   0.61868
C     0.48255   1.62862   0.97196
H     0.50951   3.22292   2.41559
H    -2.20564   0.00039   3.08542
H    -1.24175   2.13762   3.83951
C     0.33441  -0.24298  -0.62899
C     1.45088   2.25673   0.13178
C     1.83283   1.68504  -1.02604
C     1.28131   0.43375  -1.44120
H     1.86082   3.21129   0.44288
H     2.56374   2.17010  -1.66301
C    -0.13136  -1.48616  -1.09168
C     1.69477  -0.13617  -2.65883
C     0.24751  -1.99870  -2.30394
C     1.17213  -1.32702  -3.09859
H     2.44526   0.37466  -3.24927
H     1.49047  -1.75988  -4.03704
H    -0.74289  -2.14020  -0.49821
H    -0.17068  -2.95166  -2.59978
27
Generated by autodE on: 2023-07-13. E = -2061.528010 Ha
Pd   -2.15199  -1.97032   1.08740
Cl   -3.24612  -3.71166   0.10825
Cl   -0.26866  -3.36565   1.48303
Cl   -4.09870  -0.73474   1.28492
N    -1.04347  -0.16563   1.42579
C    -1.42046   0.47071   2.51900
C    -0.87633   1.68306   2.93692
C     0.07714   2.26827   2.15180
C    -0.10477   0.38740   0.61554
C     0.46919   1.63807   0.96506
H     0.52943   3.21362   2.43152
H    -2.22078   0.01750   3.08414
H    -1.21597   2.13065   3.85946
C     0.31201  -0.24360  -0.62792
C     1.44261   2.25503   0.12351
C     1.82823   1.67160  -1.02614
C     1.27192   0.42112  -1.43680
H     1.85993   3.20826   0.42766
H     2.56574   2.15021  -1.66038
C    -0.16870  -1.48236  -1.09260
C     1.69213  -0.15606  -2.64863
C     0.20768  -1.99030  -2.30603
C     1.15232  -1.33694  -3.09140
H     2.45726   0.34103  -3.23316
H     1.47373  -1.78207  -4.02189
H    -0.76556  -2.16522  -0.50681
H    -0.22443  -2.93585  -2.60238
27
Generated by autodE on: 2023-07-13. E = -2061.522486 Ha
Pd   -2.16685  -1.94744   1.03448
Cl   -3.18151  -3.63830  -0.12017
Cl   -0.31671  -3.37574   1.51580
Cl   -4.13725  -0.77456   1.30495
N    -1.06278  -0.13920   1.42270
C    -1.43445   0.50121   2.51422
C    -0.86953   1.70345   2.93783
C     0.10017   2.27163   2.15906
C    -0.11004   0.39631   0.61854
C     0.48435   1.63822   0.97001
H     0.56769   3.20844   2.44324
H    -2.24383   0.05534   3.07221
H    -1.21187   2.16008   3.85495
C     0.30000  -0.24696  -0.62229
C     1.46303   2.24274   0.12324
C     1.82053   1.66016  -1.03775
C     1.24594   0.41832  -1.44488
H     1.90529   3.18370   0.42955
H     2.56226   2.12106  -1.68118
C    -0.16984  -1.49663  -1.07163
C     1.65353  -0.16023  -2.65943
C     0.18227  -2.00085  -2.29470
C     1.11099  -1.34275  -3.09511
H     2.41659   0.33694  -3.24642
H     1.42713  -1.78774  -4.02742
H    -0.71766  -2.20428  -0.46009
H    -0.26190  -2.94080  -2.59014
27
Generated by autodE on: 2023-07-13. E = -2061.518421 Ha
Pd   -2.17637  -1.90401   0.95299
Cl   -3.15960  -3.59229  -0.23642
Cl   -0.31263  -3.30486   1.62188
Cl   -4.16524  -0.75517   1.18954
N    -1.08834  -0.12374   1.38841
C    -1.48236   0.51790   2.47138
C    -0.89540   1.70137   2.91582
C     0.10597   2.25372   2.16576
C    -0.09302   0.39397   0.62177
C     0.51121   1.62259   0.98395
H     0.58768   3.17697   2.46514
H    -2.31881   0.08695   3.00325
H    -1.24111   2.15836   3.83151
C     0.33831  -0.24861  -0.60506
C     1.51129   2.21409   0.15099
C     1.85666   1.64868  -1.02294
C     1.26004   0.42130  -1.44711
H     1.97233   3.14071   0.47499
H     2.60023   2.11617  -1.65942
C    -0.10780  -1.51567  -1.01232
C     1.61349  -0.15275  -2.68108
C     0.15202  -1.99782  -2.26615
C     1.02876  -1.32041  -3.10964
H     2.36148   0.33517  -3.29448
H     1.29300  -1.75557  -4.06371
H    -0.50632  -2.23540  -0.31029
H    -0.30153  -2.93960  -2.54199
27
Generated by autodE on: 2023-07-13. E = -2061.511504 Ha
Pd   -2.16719  -1.86020   0.86192
Cl   -3.11626  -3.52538  -0.38788
Cl   -0.28966  -3.28073   1.64473
Cl   -4.17303  -0.75280   1.14468
N    -1.09567  -0.11110   1.37424
C    -1.49143   0.52228   2.45977
C    -0.89257   1.69319   2.92054
C     0.11674   2.24770   2.18040
C    -0.08520   0.40182   0.62456
C     0.52283   1.62513   0.99346
H     0.59564   3.16826   2.49329
H    -2.34101   0.09500   2.97230
H    -1.24180   2.14400   3.83810
C     0.34328  -0.24866  -0.59390
C     1.52224   2.20965   0.15446
C     1.85480   1.64276  -1.02384
C     1.25282   0.41804  -1.44807
H     1.99094   3.13422   0.47284
H     2.59774   2.10377  -1.66424
C    -0.09480  -1.52915  -0.97195
C     1.59004  -0.16353  -2.68288
C     0.12243  -2.00206  -2.23781
C     0.98393  -1.32429  -3.09898
H     2.33897   0.31202  -3.30595
H     1.22893  -1.76057  -4.05773
H    -0.39720  -2.26287  -0.22461
H    -0.33933  -2.94080  -2.51048
27
Generated by autodE on: 2023-07-13. E = -2061.502727 Ha
Pd   -2.15022  -1.79841   0.74014
Cl   -3.06966  -3.46086  -0.51960
Cl   -0.25086  -3.26579   1.65547
Cl   -4.17266  -0.76011   1.12983
N    -1.10413  -0.09706   1.35622
C    -1.49952   0.52077   2.45015
C    -0.89130   1.68180   2.92615
C     0.12031   2.24372   2.19279
C    -0.07925   0.41107   0.62665
C     0.53212   1.62941   1.00257
H     0.59529   3.16417   2.51571
H    -2.35339   0.09028   2.95179
H    -1.24457   2.12669   3.84577
C     0.34596  -0.24672  -0.58388
C     1.52764   2.20977   0.15604
C     1.85199   1.63920  -1.02480
C     1.24790   0.41486  -1.44537
H     1.99978   3.13431   0.46724
H     2.59285   2.09637  -1.67013
C    -0.09279  -1.53717  -0.93383
C     1.57138  -0.17568  -2.67912
C     0.09610  -2.00762  -2.20790
C     0.94839  -1.33350  -3.08043
H     2.31890   0.28896  -3.31002
H     1.18169  -1.77539  -4.03834
H    -0.30373  -2.28898  -0.15226
H    -0.36973  -2.94619  -2.47857
27
Generated by autodE on: 2023-07-13. E = -2061.493980 Ha
Pd   -2.13204  -1.71575   0.58721
Cl   -3.08010  -3.42226  -0.57757
Cl   -0.14853  -3.24951   1.68547
Cl   -4.16171  -0.78924   1.15912
N    -1.11469  -0.08568   1.33345
C    -1.50662   0.51076   2.44045
C    -0.89645   1.66918   2.92359
C     0.11425   2.24169   2.19580
C    -0.07643   0.42089   0.62481
C     0.53640   1.63273   1.00720
H     0.58259   3.16332   2.52206
H    -2.35729   0.07471   2.94297
H    -1.25144   2.10841   3.84482
C     0.34496  -0.24293  -0.57786
C     1.53425   2.20955   0.16068
C     1.85156   1.63839  -1.02226
C     1.24299   0.41528  -1.44208
H     2.01080   3.13202   0.46988
H     2.59198   2.09604  -1.66817
C    -0.10950  -1.53658  -0.90603
C     1.55327  -0.17852  -2.67656
C     0.09038  -2.02117  -2.17766
C     0.93563  -1.34630  -3.06145
H     2.28798   0.29127  -3.31850
H     1.16712  -1.79083  -4.02030
H    -0.26335  -2.29167  -0.08124
H    -0.35802  -2.96910  -2.44488
27
Generated by autodE on: 2023-07-13. E = -2061.492465 Ha
Pd   -2.14534  -1.66643   0.50946
Cl   -3.11038  -3.29944  -0.74368
Cl   -0.04215  -3.15614   1.79699
Cl   -4.16890  -0.81975   1.17946
N    -1.12669  -0.07924   1.31833
C    -1.50882   0.49988   2.43635
C    -0.88580   1.64585   2.93288
C     0.12155   2.22431   2.20488
C    -0.08167   0.42303   0.61967
C     0.53709   1.62558   1.00836
H     0.58934   3.14397   2.53650
H    -2.35884   0.05705   2.93498
H    -1.22825   2.07492   3.86344
C     0.34567  -0.24273  -0.57824
C     1.52927   2.20274   0.15526
C     1.83333   1.64112  -1.03648
C     1.23219   0.41244  -1.45286
H     2.01132   3.12050   0.47074
H     2.56164   2.10629  -1.69012
C    -0.09896  -1.53665  -0.89534
C     1.52629  -0.18951  -2.68895
C     0.11925  -2.06005  -2.14460
C     0.93124  -1.37689  -3.05187
H     2.23083   0.29043  -3.35735
H     1.13891  -1.81550  -4.01949
H    -0.31225  -2.25489  -0.06781
H    -0.31411  -3.02345  -2.37592
