! EnGrad PBEh-3c
%output 
xyzfile=True 
end 
%scf 
maxiter 250 
end
%output
Print[P_Hirshfeld] = 1
end
% maxcore
4000
*xyz 1 1
Ir   0.54496043  -0.80023144   0.48608435 
C    0.16573223  -2.90796409   0.83768425 
C   -0.03642410  -2.26360925   2.11717425 
C    2.14426628  -1.88016446   1.43696033 
C    1.52805143  -2.72369360   0.46779788 
C    1.16648309  -1.64784162   2.47154924 
N   -1.15093332  -0.19177012  -0.55530058 
C   -2.50326791  -0.22782746   0.01927048 
C   -2.70094332   0.86819201   1.05530583 
H   -3.69184590   0.80254572   1.50252021 
H   -2.61587822   1.84424581   0.57909736 
H   -1.97568075   0.79670334   1.86204220 
C   -3.64544864  -0.22680580  -0.98544733 
H   -2.57175379  -1.17825631   0.55445689 
H   -4.58899366  -0.40343180  -0.47144908 
H   -3.73987754   0.73369281  -1.49463976 
H   -3.53746232  -1.01678923  -1.72972337 
C   -0.96074377   0.18730498  -1.76688524 
C    0.35415612   0.16708870  -2.31117387 
H   -1.78133136   0.50196158  -2.40251248 
C    1.39910236  -0.25932383  -1.52851908 
C    2.61072556  -0.31449041  -2.25789444 
S    0.83424542   0.42854737  -3.93221981 
C    2.44905464   0.06245543  -3.56510619 
H    2.25574153   1.34954742  -0.82613158 
H    3.58336833  -0.59083431  -1.87469317 
H    3.20331364   0.07032596  -4.33722721 
H   -0.50259800  -3.62009659   0.37879531 
H   -0.91886071  -2.32595959   2.73132835 
H    1.33849854  -1.11793492   3.39478122 
O    2.15402932   2.22185407  -0.02170068 
O    0.54440611   1.24008841   1.13700333 
C    1.22992954   2.22792146   0.87294597 
C    1.07665011   3.50525419   1.61762167 
H    0.93667194   4.33120862   0.92094878 
H    1.97756144   3.72953001   2.19013720 
H    0.23458118   3.46442806   2.30107450 
H    3.18570914  -1.61058128   1.48455321 
H    2.00479223  -3.22525716  -0.35850709 
*
