! EnGrad PBEh-3c
%output 
xyzfile=True 
end 
%scf 
maxiter 250 
end
%output
Print[P_Hirshfeld] = 1
end
% maxcore
4000
*xyz 1 1
Ir   0.58905766  -0.79032041   0.42637608 
C    0.16472580  -2.91570401   0.86226253 
C   -0.03015298  -2.25866471   2.11850219 
C    2.15235223  -1.89499649   1.44209318 
C    1.51437220  -2.73052001   0.46720090 
C    1.18981065  -1.65424607   2.46579745 
N   -1.15664028  -0.19285026  -0.56682242 
C   -2.51407125  -0.23226670   0.02898217 
C   -2.70172503   0.88250800   1.04563862 
H   -3.69667931   0.81272494   1.48642017 
H   -2.61841782   1.85759008   0.56693417 
H   -1.98140553   0.81756481   1.85663625 
C   -3.63957064  -0.23199519  -0.99313780 
H   -2.56293715  -1.17909953   0.56276579 
H   -4.58145995  -0.40808177  -0.47307524 
H   -3.74168259   0.72373677  -1.50720418 
H   -3.52907115  -1.02714565  -1.72906790 
C   -0.96385059   0.19205207  -1.77761876 
C    0.36295098   0.15530948  -2.30125642 
H   -1.78870939   0.50424951  -2.40085973 
C    1.38204252  -0.26792796  -1.46604025 
C    2.60581871  -0.30387715  -2.24385974 
S    0.82645016   0.43703137  -3.94355182 
C    2.43979143   0.05062972  -3.56606001 
H    2.21210414   1.42863607  -0.70699349 
H    3.58837916  -0.58735642  -1.87655922 
H    3.19827945   0.07097215  -4.34515975 
H   -0.52010974  -3.60285389   0.39138021 
H   -0.90920380  -2.31080712   2.74613090 
H    1.36675230  -1.11179760   3.38344880 
O    2.16947373   2.18128146  -0.08521795 
O    0.53287007   1.22695607   1.14699745 
C    1.25227440   2.18397129   0.84564605 
C    1.07764270   3.49946835   1.61809228 
H    0.93527267   4.33103690   0.92759312 
H    1.97373548   3.72481888   2.19945454 
H    0.22726487   3.46051352   2.30625052 
H    3.19111510  -1.62199535   1.46275733 
H    1.98225668  -3.22005397  -0.37427785 
*
