! EnGrad PBEh-3c
%output 
xyzfile=True 
end 
%scf 
maxiter 250 
end
%output
Print[P_Hirshfeld] = 1
end
% maxcore
4000
*xyz 1 1
Ir   0.60198638  -0.79308404   0.40986062 
C    0.16539907  -2.91926026   0.87096455 
C   -0.02209191  -2.25048558   2.12592011 
C    2.15974137  -1.90794504   1.43511370 
C    1.51325836  -2.73435707   0.46472504 
C    1.19787951  -1.65743799   2.46576660 
N   -1.15751418  -0.19543022  -0.57427219 
C   -2.51093693  -0.23104513   0.02760089 
C   -2.70404679   0.89021909   1.04018846 
H   -3.69910456   0.82003511   1.47614851 
H   -2.61970810   1.86609191   0.55879994 
H   -1.98452776   0.83199240   1.85350907 
C   -3.63851848  -0.23694159  -0.99450571 
H   -2.55761913  -1.18223172   0.56974073 
H   -4.57669697  -0.41098978  -0.47528171 
H   -3.74218653   0.71769388  -1.51542598 
H   -3.52319730  -1.03420689  -1.72962814 
C   -0.96541199   0.19253596  -1.78365610 
C    0.36118803   0.14930332  -2.29408604 
H   -1.79576260   0.50800671  -2.40336553 
C    1.38137215  -0.27129185  -1.46452410 
C    2.59587567  -0.30176008  -2.22799321 
S    0.82231121   0.43937003  -3.93589192 
C    2.43477237   0.04219572  -3.55598343 
H    2.18887349   1.43552150  -0.66692088 
H    3.58669001  -0.58378779  -1.87703563 
H    3.19103780   0.07055390  -4.34301529 
H   -0.53414601  -3.58963286   0.39733716 
H   -0.90114371  -2.29854906   2.75219352 
H    1.38472048  -1.10588714   3.37401000 
O    2.16076947   2.20393738  -0.06957758 
O    0.54355580   1.21815228   1.13598536 
C    1.25577516   2.18130282   0.84350969 
C    1.08370056   3.47861859   1.60753470 
H    0.93539779   4.32880534   0.93070484 
H    1.97166379   3.72035811   2.20368422 
H    0.22862451   3.45315110   2.30227841 
H    3.19831491  -1.63038791   1.45041151 
H    1.96753890  -3.21589886  -0.38369161 
*
