! EnGrad PBEh-3c
%output 
xyzfile=True 
end 
%scf 
maxiter 250 
end
%output
Print[P_Hirshfeld] = 1
end
% maxcore
4000
*xyz 1 1
Ir   0.60438978  -0.79954932   0.40934193 
C    0.16360747  -2.92058404   0.87508170 
C   -0.01421889  -2.24446718   2.13180019 
C    2.16786574  -1.91682512   1.42798401 
C    1.51321206  -2.73944503   0.46097944 
C    1.20761614  -1.65859307   2.46499562 
N   -1.15647830  -0.19851877  -0.57890077 
C   -2.50571626  -0.23100543   0.02549920 
C   -2.70481795   0.89667215   1.03425525 
H   -3.70176356   0.82693875   1.46713835 
H   -2.62096116   1.87275091   0.55120865 
H   -1.98752510   0.84552180   1.85047748 
C   -3.63613359  -0.24153126  -0.99616872 
H   -2.55291488  -1.18204591   0.57462921 
H   -4.57421359  -0.41415800  -0.47686122 
H   -3.74218077   0.71125823  -1.52213541 
H   -3.51802645  -1.04040522  -1.72975981 
C   -0.96916923   0.19155454  -1.78669035 
C    0.35554573   0.14730497  -2.29357944 
H   -1.80093081   0.51199081  -2.40674611 
C    1.38093363  -0.27388913  -1.47070438 
C    2.59177332  -0.30241106  -2.22065567 
S    0.82070538   0.43909289  -3.92357341 
C    2.43033959   0.03669487  -3.54495698 
H    2.17302320   1.42691960  -0.64648376 
H    3.58301448  -0.58032687  -1.87508094 
H    3.18207510   0.06922630  -4.33591065 
H   -0.54648055  -3.57630497   0.40307768 
H   -0.89358706  -2.28616098   2.75717682 
H    1.40126334  -1.09966280   3.36536053 
O    2.15621992   2.23447516  -0.05038797 
O    0.55729885   1.20877255   1.12108563 
C    1.24777431   2.18870004   0.85587333 
C    1.08463478   3.46795127   1.60552401 
H    0.93693377   4.32194179   0.93389055 
H    1.96861552   3.71366417   2.20458827 
H    0.23433497   3.44378349   2.29396365 
H    3.20499790  -1.63945419   1.43961901 
H    1.95531536  -3.21378652  -0.39327960 
*
