! EnGrad PBEh-3c
%output 
xyzfile=True 
end 
%scf 
maxiter 250 
end
%output
Print[P_Hirshfeld] = 1
end
% maxcore
4000
*xyz 1 1
Ir   0.61097965  -0.80575908   0.40385429 
C    0.16377025  -2.91903677   0.88280076 
C   -0.00670713  -2.24047811   2.13530402 
C    2.17438205  -1.92595574   1.42328596 
C    1.50865768  -2.74601600   0.45847594 
C    1.22431789  -1.66007767   2.46061741 
N   -1.15609635  -0.20244954  -0.58230962 
C   -2.50294062  -0.23286696   0.02576164 
C   -2.70449716   0.90484567   1.02627806 
H   -3.70503140   0.83504311   1.45603171 
H   -2.62258882   1.88030860   0.54196603 
H   -1.99132474   0.86184400   1.84658669 
C   -3.63181956  -0.24656673  -0.99951033 
H   -2.54692712  -1.17954934   0.57921512 
H   -4.57150355  -0.41826470  -0.47829747 
H   -3.74214451   0.70280628  -1.52983900 
H   -3.51199701  -1.04775667  -1.72951098 
C   -0.97543733   0.19128184  -1.79105598 
C    0.35128642   0.14479141  -2.29396703 
H   -1.80566324   0.51605460  -2.40945848 
C    1.37420919  -0.27791999  -1.46397252 
C    2.59156153  -0.30344269  -2.21445262 
S    0.81896039   0.43964548  -3.91417174 
C    2.42460334   0.03199946  -3.53770889 
H    2.15394125   1.43914439  -0.60546164 
H    3.57943376  -0.57678405  -1.87142203 
H    3.17172898   0.06755290  -4.32743299 
H   -0.56191538  -3.56126229   0.40967313 
H   -0.88481356  -2.27114948   2.76411430 
H    1.42163659  -1.09175346   3.35596441 
O    2.15745706   2.24497993  -0.05377070 
O    0.56548219   1.19474347   1.10992028 
C    1.24446991   2.19289560   0.86464566 
C    1.08164917   3.46547248   1.61089121 
H    0.93885086   4.31293837   0.93764336 
H    1.96513376   3.70489530   2.20557771 
H    0.23849104   3.43339096   2.28682284 
H    3.21345015  -1.65034442   1.42604363 
H    1.94169782  -3.21250220  -0.40682228 
*
