! EnGrad PBEh-3c
%output 
xyzfile=True 
end 
%scf 
maxiter 250 
end
%output
Print[P_Hirshfeld] = 1
end
% maxcore
4000
*xyz 1 1
Ir   0.61051387  -0.81520049   0.40879844 
C    0.16427966  -2.91304296   0.88827945 
C    0.00182078  -2.23792795   2.13838828 
C    2.17921794  -1.93397835   1.41676839 
C    1.50357986  -2.75379343   0.45562386 
C    1.24291973  -1.66038433   2.45408466 
N   -1.15534792  -0.20764226  -0.58263844 
C   -2.49958774  -0.23414979   0.02552126 
C   -2.70377283   0.91223841   1.01746557 
H   -3.70738393   0.84352810   1.44428035 
H   -2.62419305   1.88649854   0.53159618 
H   -1.99519404   0.87888346   1.84227445 
C   -3.62740184  -0.25233558  -1.00198343 
H   -2.54107944  -1.17411495   0.58259856 
H   -4.56909768  -0.42304971  -0.48007446 
H   -3.74123459   0.69311608  -1.53669189 
H   -3.50600928  -1.05542590  -1.72902957 
C   -0.98254500   0.18970913  -1.79313222 
C    0.34544867   0.14360560  -2.29449396 
H   -1.80915760   0.52034209  -2.41216881 
C    1.36684508  -0.28162566  -1.46241953 
C    2.59111905  -0.30794251  -2.20970178 
S    0.81817996   0.43962515  -3.90676986 
C    2.41878434   0.03095400  -3.53236899 
H    2.14133576   1.43936720  -0.57935235 
H    3.57567145  -0.57403807  -1.86370796 
H    3.16099930   0.06501029  -4.31530975 
H   -0.57843559  -3.54563557   0.41562743 
H   -0.87477334  -2.25420177   2.77043678 
H    1.44311160  -1.08246595   3.34625764 
O    2.15350853   2.26144363  -0.04653383 
O    0.57448353   1.18555190   1.10003166 
C    1.24397506   2.19887379   0.87021127 
C    1.07680562   3.46907424   1.62116726 
H    0.94126518   4.30244827   0.93970678 
H    1.96339769   3.69429942   2.20642288 
H    0.23757883   3.42169436   2.28376519 
H    3.22387065  -1.66275933   1.41223324 
H    1.92933772  -3.21336806  -0.42208227 
*
