! EnGrad PBEh-3c
%output 
xyzfile=True 
end 
%scf 
maxiter 250 
end
%output
Print[P_Hirshfeld] = 1
end
% maxcore
4000
*xyz 1 1
Ir   0.60890325  -0.82318572   0.41453206 
C    0.16026250  -2.90841191   0.89137762 
C    0.01230952  -2.23424430   2.14313202 
C    2.18710446  -1.94207712   1.40755068 
C    1.49996460  -2.76236099   0.45052011 
C    1.25976199  -1.65948404   2.44883051 
N   -1.15545574  -0.21301816  -0.58252722 
C   -2.49733043  -0.23365486   0.02520441 
C   -2.70341365   0.91945657   1.00850404 
H   -3.70877009   0.85238863   1.43158649 
H   -2.62572849   1.89195469   0.51961145 
H   -1.99914216   0.89653196   1.83734758 
C   -3.62350129  -0.25908564  -1.00359718 
H   -2.53563981  -1.16788320   0.58624205 
H   -4.56615445  -0.42845747  -0.48233504 
H   -3.73963972   0.68266426  -1.54318316 
H   -3.49988712  -1.06372963  -1.72825156 
C   -0.98812465   0.18710509  -1.79233709 
C    0.33963845   0.14236608  -2.29364579 
H   -1.81210301   0.52440068  -2.41395253 
C    1.35991770  -0.28576569  -1.45912396 
C    2.58686408  -0.31297667  -2.20619423 
S    0.81648966   0.44032560  -3.90416148 
C    2.41228920   0.03117726  -3.52529753 
H    2.13325741   1.44285132  -0.55553250 
H    3.57302174  -0.57239019  -1.85313576 
H    3.15324560   0.06231870  -4.30474816 
H   -0.59397332  -3.52831192   0.42252729 
H   -0.86331827  -2.23615854   2.77680496 
H    1.46603505  -1.07316323   3.33493306 
O    2.15174501   2.26897025  -0.04700847 
O    0.58237054   1.18296396   1.09431106 
C    1.24134452   2.20256871   0.87712855 
C    1.07234628   3.47071236   1.63096917 
H    0.94298231   4.29451413   0.94004098 
H    1.96423597   3.68398478   2.20979998 
H    0.22912868   3.41059845   2.28761981 
H    3.23338337  -1.67682952   1.39734595 
H    1.91639000  -3.21511909  -0.43686496 
*
