! EnGrad PBEh-3c
%output 
xyzfile=True 
end 
%scf 
maxiter 250 
end
%output
Print[P_Hirshfeld] = 1
end
% maxcore
4000
*xyz 1 1
Ir   0.60709614  -0.83246792   0.42199520 
C    0.15225105  -2.90067651   0.89513578 
C    0.03179319  -2.22599985   2.15338323 
C    2.20044866  -1.95795642   1.38696660 
C    1.49426154  -2.77490112   0.44109405 
C    1.28509553  -1.65738548   2.44012010 
N   -1.15800247  -0.22226980  -0.57931317 
C   -2.49473511  -0.22972736   0.02397841 
C   -2.70379869   0.93188141   0.99374825 
H   -3.70997854   0.86768168   1.40944146 
H   -2.62802396   1.89999329   0.49645465 
H   -2.00551183   0.92633307   1.82807446 
C   -3.61846310  -0.27174314  -1.00496504 
H   -2.52816368  -1.15799985   0.59418366 
H   -4.56074582  -0.43867876  -0.48669168 
H   -3.73591552   0.66451043  -1.55342704 
H   -3.48936660  -1.07885412  -1.72627592 
C   -0.99384853   0.18282804  -1.79053003 
C    0.33146952   0.13924578  -2.28963421 
H   -1.81541391   0.52993863  -2.41366034 
C    1.34833013  -0.29291583  -1.45472969 
C    2.57613018  -0.32269676  -2.19665794 
S    0.81032742   0.44249180  -3.90402070 
C    2.40297644   0.03251282  -3.51300566 
H    2.12785506   1.44269076  -0.52843635 
H    3.56629129  -0.57075871  -1.83306891 
H    3.14555396   0.05795615  -4.28972065 
H   -0.62041530  -3.49876279   0.43402107 
H   -0.84180801  -2.20475196   2.78784814 
H    1.50651242  -1.05762798   3.31374750 
O    2.14524469   2.27986406  -0.04327789 
O    0.58824952   1.18220452   1.09463978 
C    1.24437157   2.21073899   0.88079229 
C    1.06319453   3.46749728   1.64707858 
H    0.94434163   4.28584318   0.93960531 
H    1.96810352   3.66810637   2.21973076 
H    0.20832591   3.39462389   2.30155529 
H    3.24926279  -1.70231331   1.37037507 
H    1.89393491  -3.21986988  -0.46062866 
*
