! EnGrad PBEh-3c
%output 
xyzfile=True 
end 
%scf 
maxiter 250 
end
%output
Print[P_Hirshfeld] = 1
end
% maxcore
4000
*xyz -1 1
Pd  -2.24831990  -1.65690838   0.80013176 
Cl  -3.65374361  -3.24370299  -0.10165465 
Cl  -0.95151547  -4.37090831   1.60723531 
Cl  -3.85419819  -0.07203341   0.45341504 
N   -0.91836881  -0.16190327   1.43456588 
C   -1.23148209   0.37730473   2.59831695 
C   -0.74741821   1.61600268   3.02485685 
C    0.08431925   2.30333180   2.17870758 
C   -0.07138582   0.46516866   0.59324594 
C    0.43748132   1.73340528   0.94789230 
H    0.46978945   3.27353211   2.47007632 
H   -1.92718589  -0.17127766   3.21960584 
H   -1.03782554   2.01035427   3.98779707 
C    0.35315419  -0.19985220  -0.61063582 
C    1.29760497   2.42157613   0.03805203 
C    1.63279510   1.85295283  -1.14052364 
C    1.19219461   0.53434908  -1.47985795 
H    1.66561208   3.40625346   0.29830354 
H    2.27339474   2.39623839  -1.82590149 
C   -0.00001252  -1.52879491  -0.92489492 
C    1.63751716  -0.05140584  -2.67432829 
C    0.43786202  -2.04959853  -2.12800872 
C    1.28198377  -1.33896285  -2.98460478 
H    2.27198363   0.50320349  -3.35543387 
H    1.64292217  -1.77749567  -3.90966189 
H   -0.21284419  -3.21204615  -0.09513894 
H    0.17567951  -3.05878274  -2.42156375 
*
