! EnGrad PBEh-3c
%output 
xyzfile=True 
end 
%scf 
maxiter 250 
end
%output
Print[P_Hirshfeld] = 1
end
% maxcore
4000
*xyz -1 1
Pd  -2.22874205  -1.72279440   0.75023081 
Cl  -3.62475994  -3.22378630  -0.10101654 
Cl  -0.89331492  -4.33665653   1.52598113 
Cl  -3.86681970  -0.09178534   0.50710827 
N   -0.95505421  -0.16044950   1.44640427 
C   -1.23947423   0.39935856   2.59986476 
C   -0.74608274   1.61515617   3.01515587 
C    0.07769954   2.30129402   2.18140472 
C   -0.06364448   0.45610648   0.61848759 
C    0.44828168   1.75593519   0.94236062 
H    0.47467498   3.28045078   2.46148120 
H   -1.92986231  -0.16143032   3.21577372 
H   -1.04457257   2.02228227   3.98325502 
C    0.34594341  -0.19619445  -0.59476172 
C    1.30262904   2.41688443   0.03320994 
C    1.63536479   1.85685281  -1.12347383 
C    1.20447073   0.54488390  -1.50143067 
H    1.67483809   3.40671794   0.30289774 
H    2.28466700   2.38614383  -1.82527427 
C   -0.00494016  -1.66941718  -0.89263201 
C    1.64565332  -0.05663247  -2.67286144 
C    0.43673445  -2.04579759  -2.14091388 
C    1.26342743  -1.32028445  -2.99775466 
H    2.28181091   0.50413320  -3.34451607 
H    1.63429730  -1.78203388  -3.90210460 
H   -0.26451567  -3.13140281  -0.06665582 
H    0.15004103  -3.04732748  -2.41894638 
*
