! EnGrad PBEh-3c
%output 
xyzfile=True 
end 
%scf 
maxiter 250 
end
%output
Print[P_Hirshfeld] = 1
end
% maxcore
4000
*xyz -1 1
Pd  -2.21693709  -1.73440291   0.73521989 
Cl  -3.61684712  -3.22386167  -0.10604264 
Cl  -0.86670234  -4.32052851   1.48667946 
Cl  -3.87097034  -0.10595542   0.53403727 
N   -0.95763393  -0.15819481   1.44282392 
C   -1.25193621   0.39490075   2.59954089 
C   -0.74790792   1.62477576   3.02371316 
C    0.08453890   2.31184553   2.17535399 
C   -0.06310531   0.45707495   0.62255497 
C    0.44288563   1.74900581   0.94703216 
H    0.47445509   3.28059857   2.45836478 
H   -1.93225879  -0.15458171   3.21524209 
H   -1.04612686   2.02598047   3.97681569 
C    0.34511298  -0.22422109  -0.59697165 
C    1.30478898   2.42920950   0.04573468 
C    1.64480461   1.85054606  -1.13955904 
C    1.19245981   0.54053420  -1.48353329 
H    1.67867552   3.40397451   0.30343536 
H    2.28840496   2.38145610  -1.82130227 
C    0.00251558  -1.68162018  -0.87244489 
C    1.65233858  -0.05475962  -2.67947793 
C    0.42785786  -2.05739154  -2.13928075 
C    1.25559374  -1.31508451  -3.00142276 
H    2.28775347   0.50380953  -3.34069668 
H    1.62973555  -1.78343668  -3.90092108 
H   -0.28360444  -3.09441783  -0.05827385 
H    0.14048313  -3.04495695  -2.42387951 
*
