! EnGrad PBEh-3c
%output 
xyzfile=True 
end 
%scf 
maxiter 250 
end
%output
Print[P_Hirshfeld] = 1
end
% maxcore
4000
*xyz -1 1
Pd  -2.18136850  -1.72714135   0.70520179 
Cl  -3.60100880  -3.24007956  -0.12931496 
Cl  -0.79349629  -4.27958407   1.37371601 
Cl  -3.88214614  -0.15281399   0.61243988 
N   -0.95319867  -0.15161774   1.43438375 
C   -1.26586276   0.40592275   2.59190063 
C   -0.75042838   1.63717506   3.01754213 
C    0.08351892   2.32087828   2.17504928 
C   -0.06695863   0.44423300   0.61116031 
C    0.43970477   1.73578783   0.94899712 
H    0.47784474   3.29067982   2.45180522 
H   -1.95212660  -0.14275277   3.22129940 
H   -1.05343301   2.04226709   3.97213078 
C    0.34681391  -0.28276307  -0.58155272 
C    1.31301388   2.42334125   0.04006889 
C    1.64318498   1.84213165  -1.12589886 
C    1.17366808   0.50622769  -1.46084292 
H    1.69345117   3.40862237   0.30964660 
H    2.30576813   2.37149790  -1.81969887 
C    0.02413025  -1.66109886  -0.84510413 
C    1.64563645  -0.05028934  -2.66704737 
C    0.40728645  -2.06685871  -2.11723726 
C    1.23086608  -1.31835063  -2.99598491 
H    2.30893516   0.50567547  -3.33552395 
H    1.61464321  -1.78590889  -3.90146766 
H   -0.32282237  -3.02106926  -0.03164195 
H    0.11214268  -3.05377762  -2.44584356 
*
