! EnGrad PBEh-3c
%output 
xyzfile=True 
end 
%scf 
maxiter 250 
end
%output
Print[P_Hirshfeld] = 1
end
% maxcore
4000
*xyz -1 1
Pd  -2.16454591  -1.71168208   0.68895654 
Cl  -3.59215427  -3.25015393  -0.14320409 
Cl  -0.75228915  -4.25398702   1.30749111 
Cl  -3.88771866  -0.17768208   0.65419586 
N   -0.95236600  -0.15000026   1.43336958 
C   -1.27031561   0.41241909   2.58779009 
C   -0.75650809   1.63880496   3.01470818 
C    0.08334762   2.32030653   2.16982786 
C   -0.06753541   0.43836050   0.60747062 
C    0.44112267   1.73079343   0.94641200 
H    0.47967213   3.29604469   2.44813817 
H   -1.96256141  -0.13553261   3.22205472 
H   -1.05689042   2.04997688   3.96985718 
C    0.35474310  -0.28761187  -0.57096114 
C    1.31412045   2.42154206   0.04510390 
C    1.64191090   1.83008317  -1.12479223 
C    1.17355453   0.49437844  -1.45438599 
H    1.69924537   3.40710899   0.31172723 
H    2.31025087   2.36208952  -1.81599803 
C    0.02531232  -1.65176158  -0.83847519 
C    1.63802613  -0.05292237  -2.66016755 
C    0.40178618  -2.06922641  -2.11163211 
C    1.21909651  -1.32450699  -2.98727601 
H    2.31504732   0.50380547  -3.32799821 
H    1.60365657  -1.78591466  -3.90021683 
H   -0.33921884  -2.99813307  -0.00651587 
H    0.09836219  -3.05630441  -2.45414996 
*
