! EnGrad PBEh-3c
%output 
xyzfile=True 
end 
%scf 
maxiter 250 
end
%output
Print[P_Hirshfeld] = 1
end
% maxcore
4000
*xyz -1 1
Pd  -2.14095916  -1.69837559   0.65480248 
Cl  -3.57467738  -3.25811371  -0.16220952 
Cl  -0.68096093  -4.20059690   1.19282366 
Cl  -3.89598005  -0.21316354   0.72026484 
N   -0.95900765  -0.14982587   1.43403784 
C   -1.28198914   0.41839904   2.58590468 
C   -0.76334595   1.64326071   3.00954516 
C    0.08196483   2.31790035   2.16323360 
C   -0.06411004   0.43281459   0.61274667 
C    0.44402398   1.72756194   0.94370463 
H    0.48121854   3.29979771   2.43952878 
H   -1.97541197  -0.12216816   3.21856720 
H   -1.06212996   2.06000537   3.96461185 
C    0.36781617  -0.28664053  -0.55641613 
C    1.31714188   2.41469176   0.04641259 
C    1.64091609   1.81619880  -1.11838656 
C    1.17997575   0.48675633  -1.44829687 
H    1.70642009   3.40211391   0.31478066 
H    2.31354178   2.34336017  -1.80920170 
C    0.02137542  -1.66996393  -0.82502973 
C    1.63012049  -0.06183861  -2.65577609 
C    0.39293385  -2.07759227  -2.10550461 
C    1.20505065  -1.32891783  -2.98073405 
H    2.31896934   0.49799577  -3.31052814 
H    1.58346764  -1.78562449  -3.89443074 
H   -0.36892837  -2.95199807   0.04263895 
H    0.07789758  -3.05554167  -2.46112004 
*
