! EnGrad PBEh-3c
%output 
xyzfile=True 
end 
%scf 
maxiter 250 
end
%output
Print[P_Hirshfeld] = 1
end
% maxcore
4000
*xyz -1 1
Pd  -2.12370589  -1.67600119   0.61384653 
Cl  -3.55592627  -3.26180390  -0.18294791 
Cl  -0.59967498  -4.12347956   1.06042692 
Cl  -3.90181396  -0.24523795   0.78756066 
N   -0.96780106  -0.15213648   1.43785112 
C   -1.29100871   0.42222500   2.58257149 
C   -0.77090038   1.64392305   3.00208138 
C    0.07938438   2.31400082   2.15916748 
C   -0.05633492   0.43043579   0.62564300 
C    0.44747439   1.72508792   0.94315433 
H    0.47953047   3.29488854   2.42672725 
H   -1.99142083  -0.11023761   3.21256602 
H   -1.06648790   2.06631979   3.95818329 
C    0.38342339  -0.29085329  -0.54803329 
C    1.31879236   2.40439806   0.04735305 
C    1.64284007   1.80424300  -1.11279174 
C    1.19295833   0.48268690  -1.44239964 
H    1.70851366   3.38947946   0.31581909 
H    2.30893115   2.31760705  -1.80088187 
C    0.01302481  -1.67381235  -0.81419652 
C    1.62201067  -0.07563693  -2.65243450 
C    0.38497785  -2.08901193  -2.09421236 
C    1.19453485  -1.33596961  -2.97233082 
H    2.31323434   0.48677179  -3.28649882 
H    1.55729766  -1.78570225  -3.88811204 
H   -0.39107531  -2.90277191   0.10501670 
H    0.06097269  -3.05753230  -2.46257968 
*
