! EnGrad PBEh-3c
%output 
xyzfile=True 
end 
%scf 
maxiter 250 
end
%output
Print[P_Hirshfeld] = 1
end
% maxcore
4000
*xyz 0 1
Pd   0.76455359   0.68926814  -0.58891978 
O    2.40305940   1.76358523   0.08669923 
C    1.71056583   2.80652613   0.16564224 
O    0.47149605   2.70550516  -0.08400583 
C    2.33154247   4.12381049   0.48816714 
H    1.62309320   4.77310707   0.99713568 
H    2.63091339   4.61083504  -0.44157463 
H    3.22348911   3.99586176   1.09704295 
N   -1.11128733  -0.07787645  -1.09055348 
C   -1.19750804  -0.44463891  -2.51727251 
H   -0.91861122   0.40047349  -3.14242759 
H   -2.21523216  -0.75432428  -2.78025768 
H   -0.53353178  -1.26966025  -2.75049337 
C   -2.08505116   1.00234745  -0.86848346 
H   -2.05423390   1.35707447   0.15696673 
H   -3.09952194   0.65616462  -1.09360973 
H   -1.86378926   1.84462499  -1.52050011 
C   -1.38348931  -1.07946163   1.19857926 
C   -0.22369827  -1.42684701   1.88804103 
C   -0.15574007  -1.34330639   3.26991499 
C   -1.25183533  -0.91210044   3.99882620 
C   -2.43454262  -0.62786596   3.33359899 
C   -2.49312752  -0.67919749   1.94478060 
H   -1.19792498  -0.86297263   5.07871857 
H   -3.30358312  -0.35631755   3.92047687 
H    0.63252878  -1.82003828   1.35540444 
H    0.75692224  -1.61778732   3.78284388 
H   -3.68318711  -0.50219591   1.42671476 
C   -1.45385272  -1.28114837  -0.29078804 
H   -2.47428012  -1.59341320  -0.54663364 
H   -0.78634566  -2.08234889  -0.60781026 
O    1.63471228  -1.03852930  -1.00651518 
C    2.24946705  -1.03211972  -2.15354057 
O    2.13914213  -0.16090139  -2.99367962 
C    3.15660513  -2.21848387  -2.39196519 
H    2.67256196  -3.15099550  -2.10494706 
H    4.05553237  -2.11827606  -1.78181123 
H    3.46418740  -2.27837725  -3.43374582 
*
