! EnGrad PBEh-3c
%output 
xyzfile=True 
end 
%scf 
maxiter 250 
end
%output
Print[P_Hirshfeld] = 1
end
% maxcore
4000
*xyz 0 1
Pd   0.78172005   0.68387636  -0.58777944 
O    2.40890645   1.74534155   0.05443403 
C    1.69460283   2.78413017   0.16216160 
O    0.45599549   2.66568488  -0.06817158 
C    2.32483711   4.10684708   0.49304559 
H    1.63129312   4.76797086   0.99829599 
H    2.63226855   4.59095831  -0.43388443 
H    3.21717099   3.97137595   1.09915208 
N   -1.12049199  -0.07216359  -1.09545950 
C   -1.18687362  -0.46631455  -2.51566808 
H   -0.90746349   0.36762000  -3.15462234 
H   -2.21347319  -0.76927662  -2.76488900 
H   -0.51749198  -1.29338987  -2.72503635 
C   -2.09416517   1.00885608  -0.87813525 
H   -2.05715460   1.35801508   0.14653314 
H   -3.10504224   0.65226909  -1.10300127 
H   -1.86199277   1.83868997  -1.54308583 
C   -1.40791819  -1.11205190   1.20772862 
C   -0.23613597  -1.44151867   1.89120514 
C   -0.17389993  -1.33845050   3.26355022 
C   -1.25383358  -0.92063139   4.00198640 
C   -2.45021368  -0.60678287   3.35730293 
C   -2.53637162  -0.69977420   1.96354110 
H   -1.22245211  -0.84888596   5.06374603 
H   -3.33698637  -0.30550158   3.91670930 
H    0.58248095  -1.79046672   1.31682205 
H    0.72731273  -1.62004155   3.75794136 
H   -3.35926711  -0.48459611   1.49683250 
C   -1.48951073  -1.26672478  -0.28185839 
H   -2.50178719  -1.57676564  -0.58348707 
H   -0.80715774  -2.05504924  -0.56263415 
O    1.62319851  -1.04803669  -1.01894328 
C    2.24430195  -1.01759271  -2.17039586 
O    2.12105681  -0.12851888  -2.99056684 
C    3.16308387  -2.20297739  -2.38962241 
H    2.70044150  -3.14458619  -2.10668674 
H    4.05948801  -2.09270343  -1.77979527 
H    3.46562624  -2.24495535  -3.43517225 
*
