! EnGrad PBEh-3c
%output 
xyzfile=True 
end 
%scf 
maxiter 250 
end
%output
Print[P_Hirshfeld] = 1
end
% maxcore
4000
*xyz 0 1
Pd   0.78224381   0.68204193  -0.58822353 
O    2.41055425   1.74504373   0.04629424 
C    1.69428125   2.77915189   0.16100800 
O    0.45289404   2.65802560  -0.06399346 
C    2.32234886   4.10321329   0.49306374 
H    1.63060492   4.76694834   0.99874373 
H    2.63140237   4.58748302  -0.43320325 
H    3.21469763   3.96652076   1.09918920 
N   -1.12235728  -0.07088122  -1.09516461 
C   -1.18537883  -0.46768226  -2.51396804 
H   -0.90470426   0.36295635  -3.15548975 
H   -2.21055143  -0.77041039  -2.76221098 
H   -0.51472879  -1.29518277  -2.71975373 
C   -2.09526078   1.01021008  -0.87933891 
H   -2.05798460   1.35838827   0.14659671 
H   -3.10527578   0.65254791  -1.10311318 
H   -1.86299862   1.83902439  -1.54426839 
C   -1.41430282  -1.11376508   1.21611600 
C   -0.23984073  -1.44325453   1.89030330 
C   -0.17441387  -1.33954799   3.26380052 
C   -1.25669497  -0.92145790   4.00270228 
C   -2.45326035  -0.60684187   3.35517139 
C   -2.50314428  -0.71087187   1.98215165 
H   -1.22535118  -0.84673046   5.07005442 
H   -3.34264461  -0.29569801   3.91477125 
H    0.58371003  -1.78581804   1.30538096 
H    0.72256502  -1.61747520   3.75296886 
H   -3.34623139  -0.47721856   1.48531853 
C   -1.49385187  -1.26510531  -0.28227198 
H   -2.50618661  -1.57353040  -0.59180847 
H   -0.80889768  -2.05173520  -0.55752802 
O    1.62016551  -1.05020760  -1.02179636 
C    2.24222017  -1.01560302  -2.17075836 
O    2.11973344  -0.12501762  -2.98929586 
C    3.16320278  -2.20050208  -2.39024018 
H    2.70295961  -3.14356627  -2.10569717 
H    4.05828772  -2.08938617  -1.77859866 
H    3.46511021  -2.24159823  -3.43438750 
*
