! EnGrad PBEh-3c
%output 
xyzfile=True 
end 
%scf 
maxiter 250 
end
%output
Print[P_Hirshfeld] = 1
end
% maxcore
4000
*xyz 0 1
Pd   0.78100177   0.68378293  -0.58784688 
O    2.40713038   1.74675721   0.05680143 
C    1.69606064   2.78550867   0.16274800 
O    0.45747146   2.66778474  -0.06914999 
C    2.32531363   4.10621225   0.49251945 
H    1.63101422   4.76860479   0.99853822 
H    2.63261994   4.59200256  -0.43430610 
H    3.21798609   3.97261859   1.09931724 
N   -1.11912709  -0.07272195  -1.09426731 
C   -1.18833597  -0.46591232  -2.51633258 
H   -0.90804773   0.36906970  -3.15458889 
H   -2.21411028  -0.76921216  -2.76580519 
H   -0.51801798  -1.29339634  -2.72636729 
C   -2.09340580   1.00799269  -0.87885753 
H   -2.05690399   1.35821599   0.14696289 
H   -3.10548116   0.65220135  -1.10313507 
H   -1.86184473   1.83865733  -1.54277471 
C   -1.40974465  -1.11007890   1.20910712 
C   -0.24278197  -1.43851071   1.88867211 
C   -0.17362558  -1.33848281   3.26252938 
C   -1.26036913  -0.91838976   3.99839709 
C   -2.44969112  -0.60679217   3.35658407 
C   -2.51351110  -0.70414692   1.97145868 
H   -1.22082328  -0.84962355   5.06318416 
H   -3.33343616  -0.30867990   3.91717210 
H    0.58467744  -1.79296593   1.31956436 
H    0.73228770  -1.62190706   3.76159060 
H   -3.38617040  -0.48085281   1.48880977 
C   -1.48870291  -1.26624726  -0.28130260 
H   -2.49995299  -1.57763595  -0.58058225 
H   -0.80610844  -2.05714268  -0.56498151 
O    1.62468958  -1.04727278  -1.01952645 
C    2.24392771  -1.01785983  -2.16909266 
O    2.12169764  -0.13025909  -2.99046174 
C    3.16312728  -2.20253621  -2.39074684 
H    2.69944288  -3.14530749  -2.10683664 
H    4.06029715  -2.09333393  -1.77990656 
H    3.46589580  -2.24589271  -3.43510830 
*
