! EnGrad PBEh-3c
%output 
xyzfile=True 
end 
%scf 
maxiter 250 
end
%output
Print[P_Hirshfeld] = 1
end
% maxcore
4000
*xyz 0 1
Pd   0.78201755   0.68008011  -0.58755043 
O    2.41127378   1.74299644   0.03566148 
C    1.69353415   2.77408256   0.15993040 
O    0.45119802   2.65033332  -0.05690152 
C    2.31918883   4.09691360   0.49282817 
H    1.62814283   4.76445730   1.00005324 
H    2.63074532   4.58204797  -0.43353990 
H    3.21157574   3.95859128   1.09987761 
N   -1.12471520  -0.07044992  -1.09438122 
C   -1.18427476  -0.47097579  -2.51171611 
H   -0.90067751   0.35554045  -3.15534948 
H   -2.20588726  -0.77441917  -2.75946137 
H   -0.51280985  -1.29880917  -2.71106530 
C   -2.09624636   1.01101421  -0.88161141 
H   -2.05994848   1.36060809   0.14522143 
H   -3.10570199   0.65323317  -1.10453736 
H   -1.86484195   1.83913453  -1.54632517 
C   -1.41021866  -1.11249807   1.22250878 
C   -0.23734177  -1.44854669   1.88608077 
C   -0.17686020  -1.34247432   3.26437619 
C   -1.26330599  -0.92238874   4.01149816 
C   -2.45168345  -0.60545243   3.36211661 
C   -2.49468921  -0.71257206   1.98809160 
H   -1.22220143  -0.84544203   5.08722036 
H   -3.33951541  -0.28511823   3.90826737 
H    0.59643480  -1.78643471   1.29343972 
H    0.72858492  -1.61786883   3.75455665 
H   -3.36001885  -0.45649356   1.45963411 
C   -1.49805307  -1.26266877  -0.27794696 
H   -2.50973419  -1.56836641  -0.59620983 
H   -0.81068264  -2.05418510  -0.55687560 
O    1.61492976  -1.05345123  -1.02549941 
C    2.23976496  -1.01425939  -2.17033591 
O    2.11902578  -0.12265713  -2.98761037 
C    3.16398294  -2.19485987  -2.39248165 
H    2.70632255  -3.13973506  -2.10578322 
H    4.05751692  -2.08184694  -1.77806089 
H    3.46669068  -2.23659782  -3.43521916 
*
