! EnGrad PBEh-3c
%output 
xyzfile=True 
end 
%scf 
maxiter 250 
end
%output
Print[P_Hirshfeld] = 1
end
% maxcore
4000
*xyz 0 1
Pd   0.77893299   0.69558023  -0.58319169 
O    2.40323015   1.74673382   0.08530503 
C    1.69763885   2.80448647   0.16575217 
O    0.46972590   2.70249372  -0.08284944 
C    2.33433904   4.12197687   0.49114153 
H    1.62758645   4.77230336   0.99814860 
H    2.63448802   4.60631874  -0.44018125 
H    3.22597757   3.99072424   1.09909883 
N   -1.11739835  -0.07808887  -1.10204825 
C   -1.19556110  -0.45564066  -2.52184087 
H   -0.91863704   0.38811956  -3.14460642 
H   -2.21744097  -0.76202430  -2.77614297 
H   -0.53258484  -1.28026923  -2.74552062 
C   -2.08937492   1.00331152  -0.87212844 
H   -2.05504663   1.35881198   0.14940388 
H   -3.09980974   0.65363002  -1.09998652 
H   -1.86053424   1.83844791  -1.53116604 
C   -1.39154335  -1.08080603   1.19905843 
C   -0.22417623  -1.43233591   1.89376884 
C   -0.15494771  -1.34155187   3.27275404 
C   -1.24968325  -0.91685095   3.99682974 
C   -2.43412312  -0.61283131   3.33703858 
C   -2.59938957  -0.66568028   1.91599464 
H   -1.19682903  -0.85981391   5.08032316 
H   -3.30157280  -0.35060753   3.92051973 
H    0.62557900  -1.82603079   1.35307877 
H    0.75406545  -1.62668532   3.78233578 
H   -3.57067598  -0.49093016   1.47311767 
C   -1.46314445  -1.27606008  -0.28209669 
H   -2.47959137  -1.58966880  -0.54393381 
H   -0.79195538  -2.08371404  -0.60067781 
O    1.63265347  -1.04137190  -1.00648591 
C    2.25094679  -1.02478315  -2.16523754 
O    2.13250490  -0.15416780  -2.99248725 
C    3.16246363  -2.21442356  -2.39072886 
H    2.68414050  -3.14645114  -2.10980732 
H    4.06076102  -2.10748199  -1.78482590 
H    3.46805546  -2.26504879  -3.43749695 
*
