! EnGrad PBEh-3c
%output 
xyzfile=True 
end 
%scf 
maxiter 250 
end
%output
Print[P_Hirshfeld] = 1
end
% maxcore
4000
*xyz 0 1
Pd   0.78384430   0.69597673  -0.58181087 
O    2.39910895   1.74641690   0.08407678 
C    1.70094499   2.79918027   0.16635220 
O    0.46586583   2.70015128  -0.08257721 
C    2.33414896   4.11938660   0.49145651 
H    1.62907480   4.77260961   0.99878993 
H    2.63566684   4.60455081  -0.43949883 
H    3.22673154   3.98837291   1.09995358 
N   -1.11861155  -0.07766942  -1.10334510 
C   -1.19634588  -0.45946305  -2.52329480 
H   -0.91805959   0.38394231  -3.14628851 
H   -2.21801682  -0.76475184  -2.77455321 
H   -0.53086825  -1.28502970  -2.74336870 
C   -2.09016062   1.00346469  -0.87571786 
H   -2.05518302   1.35951670   0.14806596 
H   -3.10093227   0.65262588  -1.10221345 
H   -1.85964689   1.83634716  -1.53496894 
C   -1.41298931  -1.07758412   1.20778697 
C   -0.23249390  -1.43168378   1.89262227 
C   -0.15393883  -1.34116786   3.27350554 
C   -1.25274448  -0.91741083   3.99430128 
C   -2.44252047  -0.60651539   3.32401745 
C   -2.58910081  -0.67273544   1.92580945 
H   -1.19737198  -0.85851400   5.07896859 
H   -3.30212748  -0.34712914   3.92284111 
H    0.62265729  -1.82710200   1.35084329 
H    0.75380797  -1.63001096   3.78240393 
H   -3.53798897  -0.48480741   1.48383360 
C   -1.46410491  -1.27524125  -0.28258938 
H   -2.48218587  -1.58809491  -0.54422390 
H   -0.79513737  -2.08207382  -0.59682083 
O    1.63325123  -1.04190786  -1.00997487 
C    2.24978352  -1.02533965  -2.16305328 
O    2.12958940  -0.14802903  -2.99496872 
C    3.16468259  -2.21123927  -2.39254782 
H    2.68793556  -3.14615357  -2.11079740 
H    4.06308045  -2.10352917  -1.78507015 
H    3.46895721  -2.26006703  -3.43756191 
*
