! EnGrad PBEh-3c
%output 
xyzfile=True 
end 
%scf 
maxiter 250 
end
%output
Print[P_Hirshfeld] = 1
end
% maxcore
4000
*xyz 0 1
Pd   0.78087183   0.69043468  -0.58460239 
O    2.39470378   1.75373542   0.08112190 
C    1.70776984   2.79464991   0.16703994 
O    0.46465392   2.69375363  -0.08090603 
C    2.33206421   4.11241907   0.49023640 
H    1.62957065   4.77324905   0.99943311 
H    2.63571552   4.60268940  -0.43838610 
H    3.22597668   3.98588301   1.10024911 
N   -1.11496732  -0.07721453  -1.09580450 
C   -1.19835320  -0.46098684  -2.52246403 
H   -0.91601628   0.38205465  -3.14992116 
H   -2.21849721  -0.76646414  -2.77374734 
H   -0.52698031  -1.28912899  -2.74093479 
C   -2.08893386   1.00271546  -0.88055874 
H   -2.05495336   1.35958399   0.14909315 
H   -3.10418105   0.65206741  -1.10321992 
H   -1.85997246   1.83666904  -1.53750624 
C   -1.43957499  -1.07813162   1.22244997 
C   -0.25887728  -1.42445328   1.88345487 
C   -0.15732467  -1.34106211   3.26942036 
C   -1.27157649  -0.91183263   3.98383562 
C   -2.45211130  -0.60580087   3.31411636 
C   -2.46161400  -0.70435335   1.97830582 
H   -1.20211992  -0.85704195   5.07079485 
H   -3.30664350  -0.34045983   3.92604255 
H    0.61371052  -1.82154582   1.34645677 
H    0.75624954  -1.63183863   3.78301089 
H   -3.55710672  -0.47270994   1.46443620 
C   -1.46773716  -1.27282247  -0.28541086 
H   -2.48463832  -1.58661400  -0.54987096 
H   -0.79804424  -2.07652788  -0.59018725 
O    1.63545603  -1.04161662  -1.01671273 
C    2.24523165  -1.02174113  -2.16089290 
O    2.12818776  -0.14647265  -2.99255727 
C    3.16500517  -2.20627808  -2.39637697 
H    2.68988376  -3.14838029  -2.10969255 
H    4.06478290  -2.10125621  -1.78334983 
H    3.46840129  -2.25672455  -3.43572663 
*
