! EnGrad PBEh-3c
%output 
xyzfile=True 
end 
%scf 
maxiter 250 
end
%output
Print[P_Hirshfeld] = 1
end
% maxcore
4000
*xyz 0 1
Pd   0.78238900   0.69326340  -0.58317757 
O    2.39695222   1.74999998   0.08263010 
C    1.70428637   2.79696225   0.16668891 
O    0.46527249   2.69701906  -0.08175901 
C    2.33312829   4.11597536   0.49085916 
H    1.62931756   4.77292267   0.99910482 
H    2.63569067   4.60363948  -0.43895405 
H    3.22636197   3.98715388   1.10009827 
N   -1.11682737  -0.07744671  -1.09965329 
C   -1.19732865  -0.46020908  -2.52288806 
H   -0.91705920   0.38301813  -3.14806702 
H   -2.21825201  -0.76559016  -2.77415866 
H   -0.52896476  -1.28703667  -2.74217708 
C   -2.08956001   1.00309787  -0.87808791 
H   -2.05507058   1.35954965   0.14856886 
H   -3.10252284   0.65235246  -1.10270621 
H   -1.85980628   1.83650475  -1.53621118 
C   -1.42600540  -1.07785217   1.21496583 
C   -0.24541095  -1.42814380   1.88813400 
C   -0.15559650  -1.34111609   3.27150548 
C   -1.26196445  -0.91467980   3.98917739 
C   -2.44721605  -0.60616557   3.31916997 
C   -2.52668449  -0.68821526   1.95151116 
H   -1.19969653  -0.85779330   5.07496681 
H   -3.30433848  -0.34386391   3.92440850 
H    0.61827704  -1.82438175   1.34869569 
H    0.75500334  -1.63090577   3.78270110 
H   -3.54734883  -0.47888461   1.47433682 
C   -1.46588323  -1.27405704  -0.28397075 
H   -2.48338657  -1.58736987  -0.54698864 
H   -0.79656055  -2.07935858  -0.59357309 
O    1.63433068  -1.04176527  -1.01327366 
C    2.24755497  -1.02357785  -2.16199558 
O    2.12890318  -0.14726704  -2.99378810 
C    3.16484052  -2.20881032  -2.39442254 
H    2.68888938  -3.14724375  -2.11025647 
H    4.06391395  -2.10241635  -1.78422790 
H    3.46868504  -2.25843058  -3.43666338 
*
