! EnGrad PBEh-3c
%output 
xyzfile=True 
end 
%scf 
maxiter 250 
end
%output
Print[P_Hirshfeld] = 1
end
% maxcore
4000
*xyz 0 1
Pd   0.78113864   0.69118903  -0.58433554 
O    2.39745518   1.75049065   0.08055218 
C    1.70348286   2.79685069   0.16658878 
O    0.46566206   2.69356979  -0.08058856 
C    2.33230956   4.11368220   0.49076542 
H    1.62971365   4.77272411   0.99910362 
H    2.63552908   4.60255973  -0.43833222 
H    3.22570920   3.98590112   1.10007128 
N   -1.11555287  -0.07718804  -1.09721089 
C   -1.19690169  -0.46100151  -2.52232183 
H   -0.91606708   0.38194846  -3.14953726 
H   -2.21861230  -0.76625894  -2.77360465 
H   -0.52739881  -1.28834631  -2.74080657 
C   -2.08952400   1.00309822  -0.87878306 
H   -2.05507237   1.35932356   0.14846712 
H   -3.10366675   0.65214590  -1.10300153 
H   -1.85988918   1.83686995  -1.53741973 
C   -1.42144772  -1.08390140   1.21327745 
C   -0.25176020  -1.42692479   1.88579839 
C   -0.15942495  -1.34033618   3.26829979 
C   -1.26821708  -0.91293050   3.98678385 
C   -2.44579572  -0.60640945   3.32955526 
C   -2.51045233  -0.69340324   1.95834367 
H   -1.20271801  -0.85695281   5.07002720 
H   -3.30689400  -0.34046424   3.92357224 
H    0.61163568  -1.82022250   1.34677775 
H    0.75515697  -1.63119217   3.78213054 
H   -3.53417265  -0.47783335   1.47423637 
C   -1.47015291  -1.27183960  -0.28263947 
H   -2.48469262  -1.58656650  -0.55056042 
H   -0.79752565  -2.07665569  -0.58980389 
O    1.63420440  -1.04183913  -1.01478395 
C    2.24678745  -1.02288722  -2.16237524 
O    2.12796383  -0.14543974  -2.99322429 
C    3.16448342  -2.20729743  -2.39450602 
H    2.69008056  -3.14769511  -2.10984341 
H    4.06417879  -2.10146437  -1.78357899 
H    3.46842229  -2.25687802  -3.43642662 
*
