! EnGrad PBEh-3c
%output 
xyzfile=True 
end 
%scf 
maxiter 250 
end
%output
Print[P_Hirshfeld] = 1
end
% maxcore
4000
*xyz 0 1
Pd   0.77966796   0.68827211  -0.58599757 
O    2.39892284   1.75072764   0.07652181 
C    1.70184133   2.79604254   0.16615170 
O    0.46550901   2.68776990  -0.07853468 
C    2.33085930   4.11090835   0.49087990 
H    1.63038590   4.77213154   0.99892384 
H    2.63507072   4.60064797  -0.43726840 
H    3.22437691   3.98367610   1.09991583 
N   -1.11427149  -0.07648482  -1.09411304 
C   -1.19551312  -0.46219326  -2.52120708 
H   -0.91439031   0.38007814  -3.15161830 
H   -2.21893427  -0.76708255  -2.77247650 
H   -0.52493780  -1.28998102  -2.73836001 
C   -2.08977650   1.00353385  -0.87922107 
H   -2.05516836   1.35884141   0.14824079 
H   -3.10512939   0.65190109  -1.10324127 
H   -1.86008753   1.83752855  -1.53910609 
C   -1.41363699  -1.09375392   1.20828893 
C   -0.25560287  -1.42720747   1.88400202 
C   -0.16601895  -1.33883394   3.26351711 
C   -1.27299453  -0.91173342   3.98651862 
C   -2.44462724  -0.60668780   3.34441619 
C   -2.49785633  -0.69885156   1.96587350 
H   -1.20797330  -0.85549401   5.06212550 
H   -3.31204535  -0.33439874   3.92204355 
H    0.60031104  -1.81262260   1.34330801 
H    0.75351712  -1.63071433   3.77985384 
H   -3.50464514  -0.47813260   1.47680894 
C   -1.47625494  -1.26902926  -0.28071629 
H   -2.48731579  -1.58510931  -0.55696450 
H   -0.79936141  -2.07166882  -0.58339402 
O    1.63326954  -1.04225078  -1.01645794 
C    2.24597473  -1.02182892  -2.16372921 
O    2.12641443  -0.14218244  -2.99237894 
C    3.16378954  -2.20555373  -2.39388247 
H    2.69203712  -3.14809878  -2.10911182 
H    4.06410085  -2.10006343  -1.78255482 
H    3.46784410  -2.25447379  -3.43613284 
*
