! EnGrad PBEh-3c
%output 
xyzfile=True 
end 
%scf 
maxiter 250 
end
%output
Print[P_Hirshfeld] = 1
end
% maxcore
4000
*xyz 1 1
Ir   0.43844840  -0.64839299   1.08058156 
C    0.03725408  -2.57189469   2.02864944 
C    1.27952954  -2.05584813   2.53135923 
C    1.47541212  -2.36655396   0.24712407 
C    0.18184556  -2.79439355   0.63870576 
C    2.15323375  -1.93054116   1.43434250 
N   -0.87434870   0.07120196  -0.37746455 
C   -2.31692314   0.22035017   0.00012138 
C   -2.77679837   1.66931105  -0.05781593 
H   -3.80003396   1.73692500   0.31441311 
H   -2.76558585   2.06484499  -1.07227090 
H   -2.16461866   2.31396044   0.56390590 
C   -3.21499869  -0.68627572  -0.83524004 
H   -2.38756151  -0.10608595   1.03408752 
H   -4.22044223  -0.67903621  -0.41427840 
H   -3.30664758  -0.35744117  -1.87086488 
H   -2.86509291  -1.71621478  -0.83378762 
C   -0.56640975   0.29138857  -1.60415311 
C    0.73541693   0.20111190  -2.22450289 
H   -1.38280594   0.54741533  -2.27795982 
C    2.01876305   0.37428413  -1.74287382 
C    2.99097390   0.17150594  -2.73290302 
S    0.76312614  -0.11380459  -3.93790577 
C    2.45857695  -0.09533900  -3.96708782 
H    2.27922282   0.80218124  -0.78328313 
H    4.05438884   0.23654678  -2.55396259 
H    2.99913963  -0.28286985  -4.88220743 
H   -0.82264153  -2.84478403   2.62516549 
H    1.50050162  -1.86060773   3.56709082 
H    3.15999517  -1.53998323   1.46205050 
O    1.36974674   1.33961517   1.08126964 
O   -0.33603454   0.88736757   2.28484110 
C    0.50933351   1.75295273   1.90950244 
C    0.49720391   3.15798517   2.42162475 
H    0.72780893   3.86356676   1.62297180 
H    1.27060565   3.28171593   3.18297616 
H   -0.46187304   3.40332934   2.86895283 
H    1.91535562  -2.47903130  -0.72936560 
H   -0.55415928  -3.25757518  -0.00155163 
*
