! EnGrad PBEh-3c
%output 
xyzfile=True 
end 
%scf 
maxiter 250 
end
%output
Print[P_Hirshfeld] = 1
end
% maxcore
4000
*xyz 1 1
Ir   0.45091310  -0.65279837   1.08290743 
C    0.02744118  -2.57457301   2.00406546 
C    1.25193326  -2.05815269   2.54066388 
C    1.51356403  -2.36196620   0.26861760 
C    0.20513313  -2.79825839   0.62838219 
C    2.15295674  -1.92807930   1.45921113 
N   -0.87899955   0.07450741  -0.38029065 
C   -2.32024644   0.21119134  -0.00045260 
C   -2.78250470   1.66148827  -0.03422009 
H   -3.80546800   1.72011706   0.33312647 
H   -2.77615324   2.06916387  -1.04907046 
H   -2.16714523   2.29957479   0.60293372 
C   -3.22339959  -0.68222471  -0.84230281 
H   -2.39114665  -0.13288224   1.03538980 
H   -4.22628313  -0.68024682  -0.41916620 
H   -3.32069769  -0.33682856  -1.87389746 
H   -2.87393320  -1.71827826  -0.85939350 
C   -0.56558642   0.29725802  -1.60272390 
C    0.73744233   0.21621336  -2.22182705 
H   -1.38920873   0.54577631  -2.28132105 
C    2.00159880   0.38338887  -1.78117554 
C    2.99352020   0.16381498  -2.73046469 
S    0.76157027  -0.11073555  -3.92304004 
C    2.45457137  -0.09807014  -3.96277322 
H    2.26116443   0.78329776  -0.76573046 
H    4.04674649   0.23261241  -2.54579889 
H    2.99543234  -0.27561641  -4.87850399 
H   -0.84483656  -2.85481384   2.58387131 
H    1.45107732  -1.85105939   3.58212544 
H    3.15727493  -1.53087385   1.52117101 
O    1.36609175   1.30313750   1.05685274 
O   -0.32479777   0.91301682   2.27753169 
C    0.51436986   1.75657410   1.89578763 
C    0.51699548   3.15888950   2.39866342 
H    0.73166442   3.87130880   1.60774106 
H    1.29134856   3.29101695   3.15894966 
H   -0.44298720   3.41262254   2.86332766 
H    1.96819565  -2.46662780  -0.71058053 
H   -0.52073685  -3.25027549  -0.03818870 
*
