! EnGrad PBEh-3c
%output 
xyzfile=True 
end 
%scf 
maxiter 250 
end
%output
Print[P_Hirshfeld] = 1
end
% maxcore
4000
*xyz 1 1
Ir   0.45626305  -0.65716999   1.08007534 
C    0.00615742  -2.58429965   1.97510210 
C    1.21446004  -2.05761560   2.55635789 
C    1.56244973  -2.35909730   0.28678437 
C    0.24742247  -2.80334604   0.59745454 
C    2.15906537  -1.91963317   1.52065322 
N   -0.88074087   0.07475772  -0.37782137 
C   -2.32575375   0.19559552   0.00678201 
C   -2.78700741   1.65011893   0.00334567 
H   -3.81592440   1.69286433   0.36665723 
H   -2.79053165   2.07562747  -1.00296058 
H   -2.17725543   2.27010927   0.66055443 
C   -3.23386323  -0.67974751  -0.85799807 
H   -2.39523643  -0.17425694   1.02878153 
H   -4.23655533  -0.68236544  -0.42618301 
H   -3.34304140  -0.30392273  -1.87694219 
H   -2.89078241  -1.71383350  -0.90206226 
C   -0.57645060   0.30826010  -1.60290658 
C    0.71501296   0.23654240  -2.23472559 
H   -1.39363838   0.54262249  -2.28348961 
C    2.00992058   0.41197181  -1.74722992 
C    2.98658075   0.15791429  -2.73856169 
S    0.75339880  -0.10835201  -3.92200070 
C    2.44961489  -0.10467526  -3.95980433 
H    2.22712942   0.74265443  -0.77990548 
H    4.04540083   0.22497603  -2.53094171 
H    2.98882877  -0.26657612  -4.87696617 
H   -0.88101998  -2.87042448   2.51285357 
H    1.36602303  -1.83808711   3.60158565 
H    3.15247950  -1.51634870   1.61913381 
O    1.36093233   1.27193372   1.03070884 
O   -0.32364220   0.93099896   2.27346568 
C    0.54234260   1.75725997   1.85630215 
C    0.54276247   3.16925627   2.36908409 
H    0.74096915   3.88659920   1.57650603 
H    1.32662871   3.30405814   3.11671944 
H   -0.40244408   3.42110015   2.84698907 
H    2.05279743  -2.44391859  -0.66929462 
H   -0.45845240  -3.23683890  -0.09576719 
*
