! EnGrad PBEh-3c
%output 
xyzfile=True 
end 
%scf 
maxiter 250 
end
%output
Print[P_Hirshfeld] = 1
end
% maxcore
4000
*xyz 0 1
Pd   0.53873689   0.36529257  -0.35701146 
O    1.99282643   1.37602684   0.49144024 
C    1.65697754   2.58362773   0.29321836 
O    0.53371672   2.82563034  -0.15177127 
C    2.63245166   3.68457577   0.58831206 
H    2.13679029   4.56259304   1.02092090 
H    3.07481512   4.04138791  -0.35645529 
H    3.46864700   3.40746058   1.23635606 
N   -1.33241448  -0.62072635  -1.07547290 
C   -1.24448876  -1.56858757  -2.22283380 
H   -0.79120096  -1.07289188  -3.09103686 
H   -2.25778298  -1.93144719  -2.50353225 
H   -0.62206034  -2.42781068  -1.94994731 
C   -2.16189311   0.50218087  -1.56896687 
H   -2.26794382   1.27193135  -0.79737015 
H   -3.17211538   0.15001991  -1.85956472 
H   -1.68628283   0.94449420  -2.45000684 
C   -1.52356231  -1.06132633   1.37613210 
C   -0.90388653  -2.03012145   2.16156654 
C   -0.72821523  -1.87230333   3.52047643 
C   -1.13912129  -0.71803715   4.16568879 
C   -1.78870364   0.27959634   3.45020435 
C   -1.87915156   0.07455914   2.10057023 
H   -1.02030441  -0.61374253   5.23677306 
H   -2.27790910   1.10753612   3.97999946 
H   -0.66646077  -2.96713510   1.68825964 
H   -0.35401078  -2.70338298   4.11540184 
H   -2.40274049   3.03167396   1.68851959 
C   -2.03366283  -1.31007114   0.00866296 
H   -3.11139388  -1.06603484   0.01338163 
H   -1.99392515  -2.39681038  -0.12386754 
O    1.94646652  -0.76084882  -1.22102881 
C    2.25111484  -0.55113443  -2.45926029 
O    1.51196704  -0.05098384  -3.28952086 
C    3.63779089  -1.01833713  -2.83659154 
H    3.64869436  -2.10853020  -2.92096909 
H    4.41846253  -0.75289680  -2.10181751 
H    3.91941731  -0.61191043  -3.80203156 
*
