! EnGrad PBEh-3c
%output 
xyzfile=True 
end 
%scf 
maxiter 250 
end
%output
Print[P_Hirshfeld] = 1
end
% maxcore
4000
*xyz 0 1
Pd   0.53824195   0.32978005  -0.36161208 
O    2.01056458   1.31325943   0.44352243 
C    1.63388511   2.60409933   0.27429420 
O    0.49615456   2.83282533  -0.16472203 
C    2.65223769   3.66007624   0.58829938 
H    2.16067531   4.52628481   1.01406611 
H    3.08909576   3.99054150  -0.33304857 
H    3.46312719   3.35795664   1.24058708 
N   -1.31779904  -0.63540342  -1.09786258 
C   -1.21273717  -1.63883646  -2.17124140 
H   -0.73142594  -1.17844509  -3.02698445 
H   -2.22061331  -2.01903732  -2.43605058 
H   -0.61133252  -2.47963135  -1.84368451 
C   -2.15061296   0.49087712  -1.59941186 
H   -2.26135952   1.25735406  -0.85371664 
H   -3.14598546   0.11781319  -1.89639643 
H   -1.65294024   0.88142592  -2.48553765 
C   -1.57628055  -1.02748501   1.41190528 
C   -1.01034692  -2.10442188   2.19481488 
C   -0.80217184  -1.91380966   3.56289535 
C   -1.13425645  -0.71319272   4.18483225 
C   -1.70803791   0.37993021   3.48318019 
C   -1.84487764   0.15462790   2.14621640 
H   -1.00609667  -0.60037482   5.26153128 
H   -2.03471741   1.30245654   3.93892533 
H   -0.84278485  -3.05959025   1.69848828 
H   -0.47958749  -2.75118259   4.14200951 
H   -2.32943210   2.97815873   1.59129902 
C   -2.08371895  -1.30509218   0.03243853 
H   -3.12165752  -0.96133973   0.00257239 
H   -2.06400687  -2.36254038  -0.12418066 
O    1.97416863  -0.76396867  -1.23593100 
C    2.23026416  -0.53099093  -2.49828989 
O    1.44511685  -0.08586301  -3.32283896 
C    3.67153122  -0.93044720  -2.85326674 
H    3.70289974  -2.00716017  -2.99141983 
H    4.39336360  -0.66552480  -2.10774696 
H    3.90292922  -0.45903314  -3.81524198 
*
