! EnGrad PBEh-3c
%output 
xyzfile=True 
end 
%scf 
maxiter 250 
end
%output
Print[P_Hirshfeld] = 1
end
% maxcore
4000
*xyz 0 1
Pd   0.53931976   0.34578441  -0.35898112 
O    2.00203974   1.33965779   0.46539724 
C    1.64527253   2.59721813   0.28249596 
O    0.51249595   2.82952813  -0.15925292 
C    2.64311052   3.67013952   0.58822562 
H    2.15020827   4.54284655   1.01711767 
H    3.08265794   4.01336384  -0.34318103 
H    3.46594718   3.38062203   1.23872240 
N   -1.32373076  -0.62859228  -1.08694676 
C   -1.22708437  -1.60754031  -2.19395701 
H   -0.75787159  -1.13098851  -3.05609153 
H   -2.23835195  -1.98047518  -2.46646237 
H   -0.61603810  -2.45679190  -1.89107325 
C   -2.15586559   0.49612540  -1.58524194 
H   -2.26422216   1.26372384  -0.82863867 
H   -3.15848830   0.13188345  -1.88026006 
H   -1.66765297   0.90945110  -2.47011627 
C   -1.55249026  -1.04511067   1.39335020 
C   -0.96138070  -2.07280255   2.18016306 
C   -0.76902629  -1.89528077   3.54429491 
C   -1.13545043  -0.71531918   4.17610870 
C   -1.74457944   0.33589634   3.46851465 
C   -1.86016008   0.11647151   2.12622804 
H   -1.01252100  -0.60623506   5.25068426 
H   -2.14439635   1.21613695   3.95788620 
H   -0.76432143  -3.01797978   1.69381983 
H   -0.42412881  -2.72993678   4.13002026 
H   -2.36258776   3.00623283   1.63492437 
C   -2.06161784  -1.30794637   0.02152978 
H   -3.11752283  -1.00785340   0.00780266 
H   -2.03278537  -2.37726534  -0.12351104 
O    1.96210920  -0.76225427  -1.22961830 
C    2.23997168  -0.54021796  -2.48162553 
O    1.47470314  -0.07032362  -3.30807982 
C    3.65677970  -0.96963245  -2.84514917 
H    3.67859001  -2.05226069  -2.95994668 
H    4.40504213  -0.70466709  -2.10515662 
H    3.91006774  -0.52715653  -3.80942937 
*
