! EnGrad PBEh-3c
%output 
xyzfile=True 
end 
%scf 
maxiter 250 
end
%output
Print[P_Hirshfeld] = 1
end
% maxcore
4000
*xyz 0 1
Pd   0.53773728   0.31314181  -0.36492230 
O    2.00988328   1.31458617   0.41784889 
C    1.62045315   2.58411390   0.26467097 
O    0.49263397   2.83428136  -0.16391736 
C    2.65530626   3.64726229   0.59107891 
H    2.17054724   4.51252193   1.01210625 
H    3.09824707   3.97008776  -0.32845564 
H    3.46108688   3.33406923   1.24339771 
N   -1.31646744  -0.64334111  -1.09611728 
C   -1.20102971  -1.66791972  -2.14888474 
H   -0.70440946  -1.22511384  -3.00145037 
H   -2.20295281  -2.05694705  -2.40719784 
H   -0.60453875  -2.50395936  -1.79593882 
C   -2.14217282   0.47790359  -1.61844823 
H   -2.25851994   1.25451403  -0.87492429 
H   -3.13439339   0.10455451  -1.91246057 
H   -1.63866079   0.85605939  -2.50165128 
C   -1.59574284  -1.01684638   1.44155968 
C   -1.06427404  -2.12034255   2.20406011 
C   -0.83930336  -1.92832595   3.57442313 
C   -1.13461679  -0.70516350   4.19562610 
C   -1.66535682   0.41317072   3.49446560 
C   -1.82700116   0.17953956   2.15482212 
H   -0.99965688  -0.59545938   5.27057526 
H   -1.92938090   1.39143835   3.92593208 
H   -0.92054194  -3.09841940   1.70443898 
H   -0.53235416  -2.77530505   4.15758131 
H   -2.29645172   2.94990645   1.54929351 
C   -2.09926226  -1.28882727   0.03979750 
H   -3.12799460  -0.91662855  -0.00322524 
H   -2.09509475  -2.35310221  -0.12413222 
O    1.98460017  -0.76425514  -1.24814369 
C    2.22049032  -0.52305768  -2.51176401 
O    1.42027029  -0.10355386  -3.33251105 
C    3.67511092  -0.88887210  -2.86986423 
H    3.72751345  -1.96436266  -3.02259872 
H    4.38655017  -0.62491941  -2.10563011 
H    3.89697859  -0.39300611  -3.81857855 
*
