! EnGrad PBEh-3c
%output 
xyzfile=True 
end 
%scf 
maxiter 250 
end
%output
Print[P_Hirshfeld] = 1
end
% maxcore
4000
*xyz 0 1
Pd   0.53874980   0.33402762  -0.36112094 
O    2.00486472   1.33062782   0.44827189 
C    1.63633341   2.59249842   0.27607598 
O    0.50534232   2.83124008  -0.16093290 
C    2.64750303   3.66189990   0.58925328 
H    2.15753370   4.53192462   1.01531272 
H    3.08827263   3.99777723  -0.33787743 
H    3.46419666   3.36385524   1.24040629 
N   -1.32111475  -0.63390432  -1.09024968 
C   -1.21770034  -1.62928698  -2.17772346 
H   -0.73861629  -1.16488935  -3.03641158 
H   -2.22560235  -2.00801783  -2.44511724 
H   -0.61189641  -2.47378007  -1.85680896 
C   -2.15093391   0.48956251  -1.59720175 
H   -2.26216841   1.26040677  -0.84530922 
H   -3.14981011   0.12204047  -1.89185763 
H   -1.65721094   0.89022116  -2.48147414 
C   -1.56806842  -1.03493081   1.41071366 
C   -0.99843949  -2.08992489   2.18876999 
C   -0.79433778  -1.90718255   3.55514610 
C   -1.13515018  -0.71166144   4.18313822 
C   -1.71604607   0.36372802   3.47786133 
C   -1.84821733   0.13918655   2.13652669 
H   -1.00788777  -0.60235402   5.25784834 
H   -2.06695487   1.27927474   3.94637738 
H   -0.82058691  -3.04695148   1.69764450 
H   -0.46310801  -2.74627694   4.13994684 
H   -2.33876774   2.98594592   1.60408296 
C   -2.07517612  -1.30106030   0.02810921 
H   -3.12129442  -0.97499722   0.00383078 
H   -2.05522715  -2.36856257  -0.12373477 
O    1.97020971  -0.76297491  -1.23629053 
C    2.23295514  -0.53403740  -2.49248042 
O    1.45509822  -0.08229205  -3.31687914 
C    3.66338200  -0.94054523  -2.85405072 
H    3.69621062  -2.02060272  -2.98251188 
H    4.39838194  -0.67594460  -2.10532715 
H    3.90535346  -0.47883997  -3.81272461 
*
