! EnGrad PBEh-3c
%output 
xyzfile=True 
end 
%scf 
maxiter 250 
end
%output
Print[P_Hirshfeld] = 1
end
% maxcore
4000
*xyz 0 1
Pd   0.52815342   0.29384976  -0.37530815 
O    2.01927733   1.30438226   0.38863889 
C    1.61118146   2.57616643   0.25977667 
O    0.47955812   2.83471435  -0.16401731 
C    2.65643417   3.63204544   0.59138470 
H    2.17718111   4.49732955   1.01197487 
H    3.10908027   3.94707019  -0.32776644 
H    3.45514429   3.30268011   1.24670830 
N   -1.31798656  -0.65178590  -1.10243620 
C   -1.18480667  -1.69985976  -2.12394150 
H   -0.67730838  -1.27774188  -2.97205273 
H   -2.17470474  -2.09232453  -2.37554388 
H   -0.59773703  -2.52604893  -1.74500190 
C   -2.13051799   0.46544154  -1.63787974 
H   -2.25530597   1.24985439  -0.90028247 
H   -3.11550674   0.09261700  -1.92769621 
H   -1.62387224   0.83201713  -2.51725971 
C   -1.62553994  -0.98037953   1.47952095 
C   -1.12780984  -2.13320726   2.21477399 
C   -0.88222122  -1.94008978   3.58838473 
C   -1.13989741  -0.70248259   4.20715539 
C   -1.62239449   0.45314144   3.50375541 
C   -1.80708484   0.22535364   2.16388283 
H   -0.99187781  -0.59160979   5.27880416 
H   -1.80135095   1.46837149   3.90336015 
H   -1.00368085  -3.12986126   1.71722157 
H   -0.58479109  -2.79675117   4.17294135 
H   -2.25660595   2.87629127   1.50316244 
C   -2.11372217  -1.27172710   0.05787592 
H   -3.12921238  -0.87206972  -0.01309766 
H   -2.12844486  -2.34147754  -0.12642916 
O    1.98901087  -0.76795887  -1.25500919 
C    2.20837864  -0.51334239  -2.52324197 
O    1.39717122  -0.12147198  -3.33942719 
C    3.67643137  -0.84611131  -2.88824003 
H    3.75468564  -1.91870071  -3.05659640 
H    4.37175503  -0.58063405  -2.10592471 
H    3.89410301  -0.32275532  -3.82358849 
*
