! EnGrad PBEh-3c
%output 
xyzfile=True 
end 
%scf 
maxiter 250 
end
%output
Print[P_Hirshfeld] = 1
end
% maxcore
4000
*xyz 0 1
Pd   0.53436494   0.31740173  -0.36699171 
O    2.01082876   1.31976721   0.42359533 
C    1.62592535   2.58574012   0.26933121 
O    0.49467263   2.83267776  -0.16220925 
C    2.65119880   3.64954591   0.59013528 
H    2.16566394   4.51760893   1.01393149 
H    3.09688298   3.97679429  -0.33369343 
H    3.46045072   3.33854053   1.24301411 
N   -1.31982029  -0.64130385  -1.09529255 
C   -1.20408870  -1.65849051  -2.15546810 
H   -0.71324663  -1.21158854  -3.00977943 
H   -2.20454055  -2.04290455  -2.41632728 
H   -0.60603716  -2.49540930  -1.81054239 
C   -2.14248565   0.47958108  -1.61403460 
H   -2.25932868   1.25604012  -0.86805755 
H   -3.13561513   0.10986482  -1.90668789 
H   -1.64341515   0.86613591  -2.49628247 
C   -1.59185055  -1.01235709   1.43918662 
C   -1.05197388  -2.10783545   2.19953063 
C   -0.83070458  -1.92079980   3.56890049 
C   -1.13711462  -0.70786317   4.19307670 
C   -1.67729237   0.40072794   3.48857649 
C   -1.83119641   0.17484311   2.14784686 
H   -1.00126273  -0.59790798   5.26652001 
H   -1.95704606   1.35752434   3.92857654 
H   -0.89635250  -3.08126014   1.70574563 
H   -0.51346135  -2.76716354   4.15360021 
H   -2.30476860   2.94057004   1.56232132 
C   -2.09112676  -1.28892201   0.04042689 
H   -3.12457093  -0.93240508  -0.00317434 
H   -2.08552517  -2.35735459  -0.12484973 
O    1.97798976  -0.76503731  -1.24403645 
C    2.22278520  -0.52547365  -2.50520977 
O    1.43112761  -0.09850499  -3.32620969 
C    3.66878192  -0.90146780  -2.86819850 
H    3.72040801  -1.97843493  -3.01316859 
H    4.38736353  -0.63650441  -2.10557442 
H    3.90069794  -0.41425101  -3.81722016 
*
