! EnGrad PBEh-3c
%output 
xyzfile=True 
end 
%scf 
maxiter 250 
end
%output
Print[P_Hirshfeld] = 1
end
% maxcore
4000
*xyz 0 1
Pd   0.52521802   0.29531824  -0.37893624 
O    2.01537156   1.31855151   0.38658203 
C    1.61376923   2.56582991   0.26086691 
O    0.48636430   2.83070973  -0.15833326 
C    2.65087382   3.62953907   0.59098429 
H    2.17351977   4.50109121   1.01434406 
H    3.11051988   3.94959855  -0.33392838 
H    3.45305194   3.30063208   1.24703258 
N   -1.32111132  -0.65190227  -1.09291914 
C   -1.18536621  -1.69535701  -2.12353267 
H   -0.67946942  -1.27440438  -2.97770037 
H   -2.17355211  -2.08679888  -2.38020978 
H   -0.59590086  -2.52343971  -1.74795303 
C   -2.12738815   0.46276783  -1.63742607 
H   -2.25483872   1.25083992  -0.89803877 
H   -3.11543612   0.09496477  -1.92615317 
H   -1.62491018   0.83871064  -2.51710764 
C   -1.62452170  -0.98269081   1.47773606 
C   -1.12857514  -2.11528246   2.21472364 
C   -0.88448166  -1.93491384   3.58237950 
C   -1.14431322  -0.69844634   4.20505733 
C   -1.62176454   0.44266944   3.49960840 
C   -1.80764735   0.22830644   2.15833051 
H   -0.99177985  -0.59368397   5.27640909 
H   -1.80467771   1.45029924   3.90504306 
H   -0.99764756  -3.11423352   1.72223532 
H   -0.57737727  -2.79229056   4.17237595 
H   -2.25643172   2.85021289   1.50758675 
C   -2.10628384  -1.26369369   0.05860231 
H   -3.12766779  -0.87948814  -0.01445318 
H   -2.12595433  -2.34175977  -0.12440968 
O    1.98176183  -0.76858791  -1.25649175 
C    2.21204892  -0.51750620  -2.51555510 
O    1.40236374  -0.11892710  -3.33486546 
C    3.66674886  -0.84824417  -2.89096652 
H    3.75306875  -1.92343002  -3.05436949 
H    4.37077924  -0.58274061  -2.10558546 
H    3.89762352  -0.32998127  -3.82246680 
*
