! EnGrad PBEh-3c
%output 
xyzfile=True 
end 
%scf 
maxiter 250 
end
%output
Print[P_Hirshfeld] = 1
end
% maxcore
4000
*xyz 0 1
Pd   0.51088274   0.39907717  -0.36778903 
O    2.03145414   1.36030151   0.54287793 
C    1.66213160   2.62424137   0.32498196 
O    0.52966102   2.82671914  -0.15481911 
C    2.64060590   3.73985446   0.57909713 
H    2.10781095   4.57983870   1.02517826 
H    3.05278471   4.08025377  -0.37036125 
H    3.46023746   3.44446210   1.22814190 
N   -1.34467503  -0.60535082  -1.12951724 
C   -1.26040043  -1.50547162  -2.28029062 
H   -0.86022593  -0.97914438  -3.12890024 
H   -2.26154427  -1.82944714  -2.55838053 
H   -0.64296647  -2.36067686  -2.05945843 
C   -2.17799984   0.53750769  -1.53363013 
H   -2.27630357   1.27617099  -0.75465791 
H   -3.17090763   0.18826627  -1.81422615 
H   -1.72252747   1.00316338  -2.40016465 
C   -1.49932136  -0.98896287   1.36856791 
C   -0.81681004  -1.97470277   2.14016981 
C   -0.64418476  -1.84243955   3.49999132 
C   -1.16310752  -0.75152534   4.14546344 
C   -1.88312864   0.20375640   3.42450279 
C   -1.92195055   0.10927447   2.08357233 
H   -1.03212587  -0.62725875   5.21181785 
H   -2.46970207   0.87486439   3.97984966 
H   -0.48573781  -2.88487066   1.68065667 
H   -0.22064382  -2.63964298   4.07716616 
H   -2.46259306   2.95751093   1.77436181 
C   -2.00291534  -1.35239795   0.01324371 
H   -3.07794144  -1.17224613   0.01418997 
H   -1.92244146  -2.42422697  -0.14049701 
O    1.91278337  -0.77306216  -1.17052381 
C    2.25728814  -0.55704596  -2.41703219 
O    1.57386753  -0.00893762  -3.26585740 
C    3.63630450  -1.11911484  -2.80583073 
H    3.59627384  -2.20561721  -2.85220464 
H    4.41014252  -0.84206113  -2.11275398 
H    3.93924984  -0.76131096  -3.79687358 
*
