! EnGrad PBEh-3c
%output 
xyzfile=True 
end 
%scf 
maxiter 250 
end
%output
Print[P_Hirshfeld] = 1
end
% maxcore
4000
*xyz 0 1
Pd   0.51878949   0.39288853  -0.36400882 
O    2.01241704   1.39716469   0.52902927 
C    1.65214453   2.57968531   0.31513831 
O    0.54914325   2.82513979  -0.14680231 
C    2.63785030   3.73220964   0.58419596 
H    2.11460686   4.57748967   1.02407697 
H    3.05852552   4.07422229  -0.37001492 
H    3.46267347   3.43745561   1.22994910 
N   -1.34493874  -0.60813857  -1.10960363 
C   -1.26011942  -1.51610629  -2.27000974 
H   -0.84637787  -0.99704223  -3.12372748 
H   -2.26264159  -1.85011886  -2.54871632 
H   -0.63732047  -2.37591315  -2.03738245 
C   -2.17279238   0.52309013  -1.54543134 
H   -2.27468927   1.27896381  -0.75931692 
H   -3.17279713   0.18081819  -1.82341158 
H   -1.71577125   0.99239560  -2.41036567 
C   -1.49787930  -1.00891670   1.39324169 
C   -0.83921487  -1.97034336   2.13231355 
C   -0.66257113  -1.84710695   3.50143541 
C   -1.15646690  -0.73765713   4.15396784 
C   -1.85942200   0.21108213   3.42199127 
C   -1.90673356   0.06663241   2.06993571 
H   -1.02977610  -0.62530286   5.21462863 
H   -2.44100235   0.92636416   3.98813198 
H   -0.51975530  -2.90316963   1.68205637 
H   -0.24746977  -2.65461613   4.08752746 
H   -2.45306959   2.99545864   1.76032035 
C   -2.00849879  -1.33722278   0.00591363 
H   -3.08674518  -1.15211158   0.01484908 
H   -1.93716117  -2.42243329  -0.13609783 
O    1.92029929  -0.76895294  -1.18588384 
C    2.25160909  -0.55364287  -2.42744547 
O    1.56797318  -0.02211715  -3.26421848 
C    3.63071892  -1.09729357  -2.81868954 
H    3.60667017  -2.18759684  -2.86556105 
H    4.41704050  -0.82348536  -2.10714831 
H    3.93540187  -0.73306467  -3.79536468 
*
