! EnGrad PBEh-3c
%output 
xyzfile=True 
end 
%scf 
maxiter 250 
end
%output
Print[P_Hirshfeld] = 1
end
% maxcore
4000
*xyz 0 1
Pd   0.52469589   0.38623983  -0.36184805 
O    2.00452755   1.39852628   0.51943839 
C    1.65524087   2.57505245   0.30996225 
O    0.54713717   2.82496467  -0.14726064 
C    2.63485152   3.71926003   0.58573046 
H    2.11997198   4.57502962   1.02355903 
H    3.06291508   4.06714790  -0.36765566 
H    3.46475553   3.43076313   1.23172767 
N   -1.34253138  -0.61155432  -1.09720220 
C   -1.25721670  -1.52804832  -2.25864106 
H   -0.83288499  -1.01439217  -3.11736933 
H   -2.26288026  -1.86989188  -2.53865878 
H   -0.63313052  -2.38891470  -2.01657685 
C   -2.16977129   0.51677080  -1.55154033 
H   -2.27302754   1.27790521  -0.76748706 
H   -3.17385469   0.17334441  -1.83230165 
H   -1.70873547   0.98147321  -2.42037339 
C   -1.50170769  -1.02847645   1.38623624 
C   -0.85389036  -1.98265966   2.13981153 
C   -0.67891881  -1.85223797   3.50345415 
C   -1.15237065  -0.73113816   4.15616003 
C   -1.84126475   0.22497580   3.42878172 
C   -1.90092583   0.06700554   2.07758265 
H   -1.02763186  -0.62257865   5.22004758 
H   -2.40463915   0.97079447   3.98797803 
H   -0.55469109  -2.91770928   1.68333333 
H   -0.27252595  -2.66720742   4.09498661 
H   -2.44160519   3.00769908   1.74372212 
C   -2.01267496  -1.32749673   0.00522993 
H   -3.09384647  -1.13182010   0.01483297 
H   -1.95053288  -2.41729403  -0.13249262 
O    1.92658742  -0.76623283  -1.19630914 
C    2.25322880  -0.55472617  -2.43336155 
O    1.55424007  -0.02853925  -3.27066405 
C    3.63004805  -1.07779773  -2.82422185 
H    3.61655064  -2.16930523  -2.87853940 
H    4.41913245  -0.80661167  -2.10477458 
H    3.93156416  -0.70474833  -3.79639828 
*
