! EnGrad PBEh-3c
%output 
xyzfile=True 
end 
%scf 
maxiter 250 
end
%output
Print[P_Hirshfeld] = 1
end
% maxcore
4000
*xyz 0 1
Pd   0.53289046   0.37517678  -0.35893754 
O    1.99726054   1.38667492   0.50489183 
C    1.65681524   2.58072592   0.30052443 
O    0.54086198   2.82487547  -0.14928593 
C    2.63237519   3.69921115   0.58727113 
H    2.12891177   4.56920726   1.02234310 
H    3.06949819   4.05393786  -0.36212430 
H    3.46734115   3.41886144   1.23436401 
N   -1.33727807  -0.61654038  -1.08304562 
C   -1.25094009  -1.54929167  -2.23942034 
H   -0.81048993  -1.04490905  -3.10436843 
H   -2.26127439  -1.90290824  -2.52051213 
H   -0.62694111  -2.40995082  -1.98124422 
C   -2.16545927   0.50845531  -1.56074584 
H   -2.27026809   1.27497725  -0.78293693 
H   -3.17384586   0.16080759  -1.84701095 
H   -1.69673993   0.96212448  -2.43657694 
C   -1.51278949  -1.04900883   1.37863891 
C   -0.87923906  -2.00802096   2.15145670 
C   -0.70542878  -1.86214024   3.51185523 
C   -1.14468191  -0.72380545   4.16096951 
C   -1.81327646   0.25339228   3.44053182 
C   -1.88939581   0.06864175   2.08908477 
H   -1.02385899  -0.61787441   5.22897259 
H   -2.33891722   1.04409427   3.98481210 
H   -0.61412135  -2.94310444   1.68595955 
H   -0.31577939  -2.68684482   4.10611070 
H   -2.42137772   3.02329643   1.71478293 
C   -2.02273231  -1.31692554   0.00631894 
H   -3.10391547  -1.09696600   0.01436052 
H   -1.97350074  -2.40663250  -0.12738281 
O    1.93720306  -0.76293819  -1.21036876 
C    2.25247177  -0.55314689  -2.44766983 
O    1.53228341  -0.04077147  -3.27994673 
C    3.63297728  -1.04593413  -2.83102268 
H    3.63350145  -2.13732075  -2.90092481 
H    4.41979428  -0.77816823  -2.10269159 
H    3.92504922  -0.65574525  -3.79919590 
*
