! EnGrad PBEh-3c
%output 
xyzfile=True 
end 
%scf 
maxiter 250 
end
%output
Print[P_Hirshfeld] = 1
end
% maxcore
4000
*xyz 0 1
Pd   0.41927657   0.33654484  -0.37716966 
O    2.01270076   1.41996367   0.60350351 
C    1.71310015   2.58217853   0.31603584 
O    0.54187235   2.83655405  -0.13748978 
C    2.64489341   3.71522314   0.58714674 
H    2.13693976   4.57190657   1.02680999 
H    3.07299797   4.03946083  -0.36343055 
H    3.46159520   3.41484028   1.23783068 
N   -1.32699458  -0.62305546  -1.06518173 
C   -1.26299611  -1.55323589  -2.21229410 
H   -0.86184293  -1.09682183  -3.11261557 
H   -2.24966339  -1.90140494  -2.55129716 
H   -0.64493020  -2.41766214  -1.97347009 
C   -2.16467304   0.46889979  -1.58626770 
H   -2.29712714   1.24828516  -0.84669384 
H   -3.17315050   0.15752168  -1.88619831 
H   -1.70953445   0.94601404  -2.44877879 
C   -1.49857837  -1.04540473   1.37635418 
C   -0.82792496  -1.99577980   2.14225152 
C   -0.72956912  -1.89510244   3.52456816 
C   -1.10778760  -0.71981035   4.14671411 
C   -1.78367203   0.24366410   3.40079017 
C   -1.88801535   0.13808133   2.01956440 
H   -0.98898103  -0.60817192   5.21492840 
H   -2.33362067   0.97938745   3.97597052 
H   -0.57297015  -2.96070408   1.72426891 
H   -0.33564586  -2.71268454   4.11464601 
H   -2.37766688   3.15899530   1.68678191 
C   -2.05052403  -1.34390237   0.00665295 
H   -3.12573620  -1.12113837   0.06379096 
H   -2.04661729  -2.43437971  -0.09926900 
O    1.87892023  -0.67314475  -1.18339501 
C    2.27900176  -0.51972785  -2.40081939 
O    1.56081620  -0.03391172  -3.25297426 
C    3.62914265  -1.03919134  -2.84569996 
H    3.62239244  -2.12851531  -2.90412484 
H    4.40255072  -0.78370114  -2.11961588 
H    3.98201709  -0.65007008  -3.80180793 
*
