! EnGrad PBEh-3c
%output 
xyzfile=True 
end 
%scf 
maxiter 250 
end
%output
Print[P_Hirshfeld] = 1
end
% maxcore
4000
*xyz 0 1
Pd   0.54648550   0.38613853  -0.28758186 
O    1.96245036   1.33344076   0.51717647 
C    1.58413447   2.59249505   0.33473884 
O    0.52216790   2.85400525  -0.16656135 
C    2.65327640   3.68106565   0.59273895 
H    2.15745719   4.55469215   1.01788747 
H    3.09255556   4.01759928  -0.35603825 
H    3.47662573   3.37856241   1.24683779 
N   -1.39562868  -0.66027693  -1.13799367 
C   -1.23127567  -1.64392046  -2.22708066 
H   -0.74645854  -1.13524930  -3.05807521 
H   -2.25026822  -1.99507646  -2.45658017 
H   -0.62318735  -2.47651273  -1.88256691 
C   -2.18215529   0.50048114  -1.61533309 
H   -2.29192710   1.26653518  -0.84169222 
H   -3.16015021   0.09959444  -1.91964917 
H   -1.65347798   0.88575302  -2.49277884 
C   -1.54207714  -0.97958063   1.40716838 
C   -1.00722339  -2.05696501   2.17881940 
C   -0.71647580  -1.87966041   3.52008607 
C   -1.16067663  -0.74897064   4.16407311 
C   -1.72789479   0.32577483   3.46916655 
C   -1.78788973   0.16180374   2.13901069 
H   -1.00776805  -0.60198449   5.21703179 
H   -2.13294835   1.19018806   3.94712456 
H   -0.74029113  -2.98942804   1.68999138 
H   -0.40493350  -2.72576048   4.11560251 
H   -2.27052510   2.92289772   1.60423515 
C   -2.06129317  -1.30296279   0.03496430 
H   -3.11300335  -1.00423547   0.01266907 
H   -2.04829178  -2.38530138  -0.12737397 
O    1.99664431  -0.75440166  -1.20953123 
C    2.20270260  -0.50863083  -2.48208041 
O    1.46426278  -0.03985948  -3.31266044 
C    3.65177083  -0.96502852  -2.81245175 
H    3.65343740  -2.05140976  -2.95627643 
H    4.42009186  -0.71222886  -2.08370721 
H    3.88644855  -0.53034068  -3.78371606 
*
