! EnGrad PBEh-3c
%output 
xyzfile=True 
end 
%scf 
maxiter 250 
end
%output
Print[P_Hirshfeld] = 1
end
% maxcore
4000
*xyz 0 1
Pd   0.54769729   0.30932385  -0.31932148 
O    1.95870459   1.38417542   0.49212671 
C    1.61274084   2.58143860   0.31550582 
O    0.47490920   2.85828294  -0.16705017 
C    2.63438564   3.63999374   0.60406261 
H    2.18160313   4.53716059   1.01593907 
H    3.09490320   3.97336328  -0.33847836 
H    3.46926718   3.33616676   1.24869922 
N   -1.35392917  -0.64708165  -1.10463485 
C   -1.22087214  -1.68072973  -2.17441938 
H   -0.66849118  -1.21145569  -3.00949717 
H   -2.22623858  -2.09046894  -2.41320327 
H   -0.60906954  -2.52149873  -1.80127149 
C   -2.16292939   0.46453953  -1.65246138 
H   -2.28371251   1.25707969  -0.87754910 
H   -3.15410382   0.08159918  -1.95869875 
H   -1.62398431   0.84213495  -2.52133361 
C   -1.57740513  -0.97277375   1.44318343 
C   -1.11704736  -2.05314323   2.18455983 
C   -0.80604260  -1.90377411   3.53059968 
C   -1.16947777  -0.72744175   4.20033255 
C   -1.65342466   0.38488132   3.51859818 
C   -1.73378916   0.24769755   2.14371355 
H   -1.01725924  -0.61393706   5.25200383 
H   -1.92922661   1.36669603   3.94232514 
H   -0.92494378  -3.00807592   1.67602652 
H   -0.45987716  -2.74002481   4.11972707 
H   -2.15530620   2.64074321   1.52971985 
C   -2.08291120  -1.24211938   0.01641956 
H   -3.11932842  -0.90886620  -0.01859112 
H   -2.06759837  -2.32932353  -0.12499816 
O    2.00052445  -0.74870702  -1.24884031 
C    2.22791142  -0.53133831  -2.47938410 
O    1.38938578  -0.08382433  -3.31746228 
C    3.63139011  -0.88664039  -2.84793409 
H    3.69077674  -1.96377231  -3.00556381 
H    4.39921740  -0.63377001  -2.07220567 
H    3.83481087  -0.40796923  -3.78149628 
*
