! EnGrad PBEh-3c
%output 
xyzfile=True 
end 
%scf 
maxiter 250 
end
%output
Print[P_Hirshfeld] = 1
end
% maxcore
4000
*xyz 0 1
Pd   0.50463338   0.27513838  -0.35949895 
O    1.97459509   1.38817246   0.49794040 
C    1.62284706   2.59504738   0.28908915 
O    0.48654739   2.84727173  -0.14483417 
C    2.63868341   3.64672605   0.60431607 
H    2.18412410   4.53320348   1.02078153 
H    3.09017111   3.95487564  -0.33267067 
H    3.45366015   3.32030849   1.24615186 
N   -1.31166430  -0.63585477  -1.08075328 
C   -1.20969859  -1.67671786  -2.13758709 
H   -0.67847077  -1.25264562  -2.99355452 
H   -2.19882122  -2.09880795  -2.41965403 
H   -0.61271221  -2.51962249  -1.78388923 
C   -2.14081583   0.44493157  -1.65750274 
H   -2.27928582   1.23780954  -0.91419674 
H   -3.14287797   0.09039721  -1.96724252 
H   -1.62769097   0.83976462  -2.52474520 
C   -1.59251202  -0.94981131   1.43726164 
C   -1.11140140  -2.03807102   2.18496754 
C   -0.87413191  -1.91001204   3.54944439 
C   -1.15433364  -0.70782081   4.20338360 
C   -1.62289004   0.40515637   3.48883697 
C   -1.74460513   0.29224067   2.10940377 
H   -1.01171224  -0.62555732   5.27570124 
H   -1.87135531   1.36334750   3.94890883 
H   -0.97823541  -3.00321087   1.68926172 
H   -0.47525216  -2.74652324   4.12202124 
H   -2.11850672   2.52725108   1.51992869 
C   -2.08768264  -1.23047450   0.03262938 
H   -3.12902605  -0.89634048  -0.01812275 
H   -2.08837776  -2.31246721  -0.11013827 
O    1.95912150  -0.72252039  -1.22736051 
C    2.21697088  -0.52177418  -2.48264069 
O    1.41379706  -0.12568220  -3.28190539 
C    3.63152172  -0.87023796  -2.86819265 
H    3.70445557  -1.94117662  -3.02172780 
H    4.36917007  -0.61102187  -2.09405667 
H    3.84826864  -0.37017554  -3.80044171 
*
