! EnGrad PBEh-3c
%output 
xyzfile=True 
end 
%scf 
maxiter 250 
end
%output
Print[P_Hirshfeld] = 1
end
% maxcore
4000
*xyz 0 1
Pd   0.47771477   0.28434528  -0.37089322 
O    1.97853273   1.34757158   0.46189928 
C    1.59378318   2.58791946   0.27717759 
O    0.48782991   2.84963047  -0.12593540 
C    2.64285665   3.64261137   0.59916504 
H    2.18633799   4.53028997   1.03316073 
H    3.09893295   3.92547682  -0.33676204 
H    3.42917850   3.27305425   1.24953084 
N   -1.30012249  -0.64907495  -1.08366511 
C   -1.16854284  -1.70903270  -2.08631199 
H   -0.66169905  -1.33364722  -2.95150904 
H   -2.14094932  -2.11969985  -2.39309135 
H   -0.60229780  -2.53656816  -1.71379867 
C   -2.10474669   0.43362462  -1.67887080 
H   -2.26664882   1.21904823  -0.97277969 
H   -3.10050712   0.08240512  -1.98653290 
H   -1.60935523   0.82579917  -2.55242350 
C   -1.63095199  -0.86230846   1.44562597 
C   -1.18343070  -1.99967647   2.20538666 
C   -0.97094399  -1.90264158   3.57780328 
C   -1.15467248  -0.68197833   4.20535223 
C   -1.53958604   0.46458832   3.45061221 
C   -1.73912921   0.41286199   2.08654859 
H   -1.01084072  -0.63865538   5.30000284 
H   -1.69829644   1.40792980   3.95500955 
H   -1.12166770  -2.98157196   1.70675573 
H   -0.53731463  -2.75048650   4.11854894 
H   -2.00349325   2.10860126   1.49763001 
C   -2.09414435  -1.19096899   0.07388717 
H   -3.13244591  -0.84071574  -0.03913171 
H   -2.12461826  -2.26580934  -0.08489846 
O    1.94705924  -0.73085745  -1.19812464 
C    2.17798594  -0.51735019  -2.47944403 
O    1.39226917  -0.17812626  -3.28048011 
C    3.63208898  -0.81682206  -2.88868554 
H    3.74382331  -1.88444475  -3.07346135 
H    4.32127309  -0.54407719  -2.12287422 
H    3.84230725  -0.27109720  -3.82299537 
*
