! EnGrad PBEh-3c
%output 
xyzfile=True 
end 
%scf 
maxiter 250 
end
%output
Print[P_Hirshfeld] = 1
end
% maxcore
4000
*xyz 0 1
Pd   0.46647279   0.30856958  -0.36580245 
O    1.96852221   1.32221807   0.42596227 
C    1.59690554   2.56549599   0.28625278 
O    0.46579743   2.85826692  -0.12037970 
C    2.63719543   3.63221234   0.59666429 
H    2.18735423   4.52729009   1.04222024 
H    3.11062273   3.90822690  -0.34686852 
H    3.41038600   3.23574991   1.25346606 
N   -1.30381411  -0.65714294  -1.08467461 
C   -1.14338224  -1.73713392  -2.05209711 
H   -0.64223779  -1.38914390  -2.92658685 
H   -2.09834732  -2.12933793  -2.36916515 
H   -0.58430393  -2.55690459  -1.65125225 
C   -2.07744482   0.42016530  -1.70554219 
H   -2.25534653   1.21751798  -1.00688561 
H   -3.06368402   0.07263151  -2.00043020 
H   -1.58929927   0.81800767  -2.57796309 
C   -1.65285713  -0.79592494   1.46523304 
C   -1.25474542  -1.95451337   2.21868633 
C   -1.03040821  -1.88989657   3.58901374 
C   -1.16029999  -0.65604965   4.20553861 
C   -1.47234605   0.50308664   3.43628534 
C   -1.73603003   0.53315895   2.05679829 
H   -1.01212906  -0.64170485   5.30241890 
H   -1.56373268   1.43717809   3.96059334 
H   -1.22946737  -2.94756039   1.72458034 
H   -0.59479670  -2.74852364   4.11455149 
H   -1.90641175   1.70451489   1.49994356 
C   -2.10457804  -1.15620809   0.08811304 
H   -3.12937034  -0.79998494  -0.05554380 
H   -2.15185785  -2.23082208  -0.05890062 
O    1.94455741  -0.74867765  -1.18361851 
C    2.16060272  -0.52365635  -2.46704871 
O    1.35748198  -0.20765282  -3.29336413 
C    3.61753437  -0.77747171  -2.91442690 
H    3.77653549  -1.84000179  -3.11594582 
H    4.29563129  -0.48854199  -2.13547705 
H    3.83341420  -0.20137388  -3.83060025 
*
