! EnGrad PBEh-3c
%output 
xyzfile=True 
end 
%scf 
maxiter 250 
end
%output
Print[P_Hirshfeld] = 1
end
% maxcore
4000
*xyz 0 1
Pd   0.47690519   0.33724936  -0.34615894 
O    1.95308511   1.32013395   0.41514806 
C    1.58556130   2.55239842   0.29784669 
O    0.47201032   2.85820500  -0.11963259 
C    2.63464172   3.62547486   0.59557260 
H    2.18557808   4.52536610   1.04250616 
H    3.11711295   3.91399761  -0.35365951 
H    3.40878436   3.23254092   1.25554389 
N   -1.32000155  -0.65829036  -1.08659105 
C   -1.13919214  -1.74581194  -2.05424567 
H   -0.63523957  -1.38724395  -2.93166973 
H   -2.10123063  -2.12056926  -2.36288702 
H   -0.57205107  -2.56516696  -1.63294427 
C   -2.07540767   0.42395246  -1.71323603 
H   -2.24996400   1.22912177  -1.00387579 
H   -3.05552766   0.06371093  -2.00241580 
H   -1.57731690   0.81953994  -2.58847553 
C   -1.64954011  -0.77899412   1.47372364 
C   -1.28076209  -1.93206298   2.21937492 
C   -1.01546973  -1.87403376   3.58049865 
C   -1.16557862  -0.65008562   4.19699671 
C   -1.46479827   0.50187930   3.43610265 
C   -1.72942596   0.55395830   2.04513276 
H   -1.01223263  -0.62969422   5.27950033 
H   -1.54992359   1.42518212   3.96428379 
H   -1.23651753  -2.91856222   1.73546833 
H   -0.62085824  -2.74044299   4.11266376 
H   -1.88775911   1.56843465   1.53552982 
C   -2.10846580  -1.14930949   0.07760605 
H   -3.12555297  -0.79857227  -0.05574074 
H   -2.15892517  -2.22980307  -0.04593184 
O    1.95299455  -0.76394128  -1.19288979 
C    2.15841348  -0.53276715  -2.46431536 
O    1.34327020  -0.20188478  -3.30186951 
C    3.60663948  -0.77367478  -2.91690300 
H    3.78349254  -1.83436735  -3.12686044 
H    4.30233220  -0.47935578  -2.13440243 
H    3.82721340  -0.20129820  -3.82324228 
*
