! EnGrad PBEh-3c
%output 
xyzfile=True 
end 
%scf 
maxiter 250 
end
%output
Print[P_Hirshfeld] = 1
end
% maxcore
4000
*xyz 0 1
Pd   0.45575154   0.37698210  -0.33750613 
O    2.01979251   1.32145761   0.58947914 
C    1.57756005   2.65876908   0.29481883 
O    0.60294192   2.82316347  -0.12560806 
C    2.66635329   3.71350883   0.58446310 
H    2.13738867   4.56678403   1.02446760 
H    3.07860488   4.03784184  -0.36117034 
H    3.46673164   3.41043225   1.23980342 
N   -1.36443387  -0.64599901  -1.12385537 
C   -1.24117217  -1.58748657  -2.22876765 
H   -0.84006694  -1.10349471  -3.09307815 
H   -2.24899260  -1.91429158  -2.52114087 
H   -0.64543031  -2.42441017  -1.95414486 
C   -2.17545252   0.49999740  -1.58525890 
H   -2.29611017   1.25096689  -0.84764478 
H   -3.16374260   0.13718034  -1.89085119 
H   -1.69463815   0.92826252  -2.45873510 
C   -1.52455797  -0.99390469   1.36674339 
C   -0.86728162  -2.03181316   2.16917033 
C   -0.71345674  -1.87835914   3.51999261 
C   -1.12345632  -0.74157412   4.13601916 
C   -1.78389295   0.27737971   3.39219526 
C   -1.85475184   0.11994554   2.07835058 
H   -0.99082769  -0.60398952   5.21737120 
H   -2.28647665   1.00975413   3.96106150 
H   -0.60535189  -2.96779367   1.71829305 
H   -0.35595921  -2.71841984   4.11613776 
H   -2.35669185   3.12582645   1.66906353 
C   -2.04870886  -1.35127597   0.05395262 
H   -3.11999488  -1.09403982   0.05073980 
H   -2.04969152  -2.42293811  -0.11151284 
O    1.92155577  -0.70713720  -1.16634772 
C    2.22996555  -0.49843721  -2.45001626 
O    1.54708645  -0.03564033  -3.27158976 
C    3.65882053  -1.02980770  -2.81404915 
H    3.62784934  -2.11159112  -2.91729513 
H    4.40378228  -0.77180267  -2.11997741 
H    3.95914482  -0.62189824  -3.80316690 
*
