! EnGrad PBEh-3c
%output 
xyzfile=True 
end 
%scf 
maxiter 250 
end
%output
Print[P_Hirshfeld] = 1
end
% maxcore
4000
*xyz 0 1
Pd   0.47521102   0.33032953  -0.34930039 
O    1.95167245   1.33000676   0.41822518 
C    1.59288638   2.55721397   0.29742018 
O    0.47049034   2.85378344  -0.11755917 
C    2.63267338   3.62067123   0.59570583 
H    2.18723658   4.52077762   1.04016136 
H    3.11609492   3.91381491  -0.35054117 
H    3.40901479   3.23371284   1.25546453 
N   -1.31249945  -0.65164102  -1.07952513 
C   -1.13874652  -1.74571932  -2.05167053 
H   -0.63049784  -1.38632220  -2.93389862 
H   -2.10850834  -2.12354911  -2.36308100 
H   -0.56872672  -2.56738872  -1.62705968 
C   -2.07536730   0.42496936  -1.71525511 
H   -2.24732160   1.23194413  -1.00466293 
H   -3.05864662   0.06055319  -2.00640763 
H   -1.57257746   0.81792352  -2.59132622 
C   -1.64944949  -0.78032425   1.47024127 
C   -1.28606272  -1.92343540   2.21824356 
C   -1.01243554  -1.87091098   3.57385905 
C   -1.16451501  -0.64449361   4.19424315 
C   -1.46643574   0.50190618   3.43410077 
C   -1.71789331   0.53320431   2.05006516 
H   -1.01165365  -0.62235519   5.27173911 
H   -1.54671686   1.42720459   3.96820965 
H   -1.23991068  -2.90854083   1.73847254 
H   -0.63193636  -2.73816410   4.11322846 
H   -1.88521714   1.54308898   1.54665255 
C   -2.10973720  -1.14636041   0.07156069 
H   -3.12931068  -0.79700663  -0.05413863 
H   -2.16240392  -2.22987141  -0.03967694 
O    1.94865922  -0.76130302  -1.20276859 
C    2.16244555  -0.53848420  -2.46751255 
O    1.34123007  -0.20164913  -3.29519036 
C    3.60365730  -0.77151734  -2.91602092 
H    3.78457089  -1.82954462  -3.13002357 
H    4.30462055  -0.47713786  -2.13520663 
H    3.82362291  -0.20114919  -3.82058701 
*
