! EnGrad PBEh-3c
%output 
xyzfile=True 
end 
%scf 
maxiter 250 
end
%output
Print[P_Hirshfeld] = 1
end
% maxcore
4000
*xyz 0 1
Pd   0.47759704   0.32193885  -0.36695293 
O    1.96512852   1.34883822   0.41860441 
C    1.59049430   2.56926970   0.28982268 
O    0.44850067   2.82535082  -0.08714786 
C    2.63262023   3.60739792   0.59212637 
H    2.18508503   4.48847977   1.02480702 
H    3.10800809   3.91324612  -0.33401173 
H    3.40364706   3.23301850   1.25610815 
N   -1.28394809  -0.62161775  -1.07817535 
C   -1.12675172  -1.74309676  -2.05006327 
H   -0.60422244  -1.37867026  -2.93863092 
H   -2.12948522  -2.11498231  -2.34984496 
H   -0.54629679  -2.55848625  -1.59174996 
C   -2.07121947   0.45047994  -1.73199473 
H   -2.22741973   1.26217662  -1.01468857 
H   -3.05546380   0.04673682  -2.02997983 
H   -1.53782251   0.82148014  -2.60707747 
C   -1.64657241  -0.83059333   1.42540499 
C   -1.30608718  -1.88090028   2.20823062 
C   -0.99258672  -1.81718881   3.53722480 
C   -1.14749432  -0.60593426   4.17485758 
C   -1.45584873   0.50385033   3.47481894 
C   -1.64871732   0.39796451   2.10663892 
H   -1.01069121  -0.54720152   5.22127428 
H   -1.52547041   1.44205348   3.99139334 
H   -1.25401610  -2.82228658   1.74451774 
H   -0.71890192  -2.70324186   4.09480967 
H   -1.87630205   1.27069045   1.59280541 
C   -2.11785964  -1.12093930   0.05765397 
H   -3.15561299  -0.79122299  -0.05683995 
H   -2.17091582  -2.21550627   0.01752356 
O    1.92190498  -0.77804529  -1.22974080 
C    2.15689697  -0.55882894  -2.48201631 
O    1.31164275  -0.17877529  -3.28213153 
C    3.60196599  -0.77225898  -2.90199925 
H    3.78911623  -1.81394184  -3.14500255 
H    4.31268407  -0.46661686  -2.13794836 
H    3.80191437  -0.20789375  -3.80452315 
*
