! EnGrad PBEh-3c
%output 
xyzfile=True 
end 
%scf 
maxiter 250 
end
%output
Print[P_Hirshfeld] = 1
end
% maxcore
4000
*xyz 0 1
Pd   0.48863408   0.32212469  -0.37607101 
O    1.98027959   1.33911953   0.41172941 
C    1.58678769   2.55734351   0.28899950 
O    0.43366904   2.82164324  -0.07786674 
C    2.62883613   3.61118484   0.59142047 
H    2.17524601   4.49599786   1.02625912 
H    3.10672320   3.91573345  -0.33848294 
H    3.40549072   3.23429260   1.25612439 
N   -1.29555396  -0.62554092  -1.09205768 
C   -1.13132533  -1.72851393  -2.05867329 
H   -0.60950418  -1.37052246  -2.93505101 
H   -2.11689364  -2.10482776  -2.34688703 
H   -0.55592726  -2.53512327  -1.61294713 
C   -2.07054181   0.45412217  -1.72820695 
H   -2.23004287   1.26562396  -1.01707631 
H   -3.04917165   0.06197700  -2.02846699 
H   -1.54372728   0.83053047  -2.59762723 
C   -1.63619166  -0.83592371   1.44300972 
C   -1.26345369  -1.93095126   2.20969491 
C   -0.99258566  -1.81992544   3.55075545 
C   -1.12820486  -0.62900506   4.20274525 
C   -1.45955074   0.50689466   3.47494056 
C   -1.67423860   0.42812453   2.09039926 
H   -1.00543569  -0.53715171   5.25584599 
H   -1.55500007   1.45708343   3.98668637 
H   -1.22706793  -2.86919055   1.71782032 
H   -0.70792712  -2.69831159   4.08598513 
H   -1.90486329   1.32203614   1.57090357 
C   -2.11803171  -1.13457958   0.05247971 
H   -3.15503894  -0.79726673  -0.06193024 
H   -2.15615654  -2.21279252   0.00774803 
O    1.91596193  -0.78930855  -1.21779976 
C    2.14151726  -0.54168934  -2.47943146 
O    1.32507365  -0.16659937  -3.28624185 
C    3.60311376  -0.78426049  -2.89845953 
H    3.78036402  -1.83647972  -3.12874478 
H    4.31212867  -0.48180740  -2.12868559 
H    3.80517094  -0.22121631  -3.80803400 
*
