! EnGrad PBEh-3c
%output 
xyzfile=True 
end 
%scf 
maxiter 250 
end
%output
Print[P_Hirshfeld] = 1
end
% maxcore
4000
*xyz 0 1
Pd   0.50377471   0.33539299  -0.39154292 
O    2.00448947   1.32817423   0.35949115 
C    1.58538425   2.53700680   0.30373785 
O    0.40898764   2.76901444  -0.02266213 
C    2.60503795   3.60842942   0.58711288 
H    2.14747962   4.49619104   1.02270506 
H    3.09731433   3.91746629  -0.34391183 
H    3.39046290   3.23548705   1.24844512 
N   -1.30458590  -0.60318633  -1.08457516 
C   -1.13181000  -1.68946087  -2.06783570 
H   -0.60039430  -1.33803816  -2.94884189 
H   -2.11243188  -2.08534023  -2.34580787 
H   -0.54962548  -2.49176481  -1.62888916 
C   -2.06184680   0.47802448  -1.73015095 
H   -2.22472145   1.29461080  -1.02906208 
H   -3.03758335   0.09910122  -2.04712853 
H   -1.52943505   0.86102733  -2.59709064 
C   -1.61153696  -0.83292508   1.45673121 
C   -1.20983276  -1.95559480   2.19020183 
C   -0.97177933  -1.82002799   3.55727917 
C   -1.10782545  -0.59274553   4.21717837 
C   -1.45465933   0.53133175   3.46749192 
C   -1.70513699   0.41428758   2.10451246 
H   -0.98049971  -0.49667719   5.31025929 
H   -1.59774767   1.47032588   3.96345909 
H   -1.16105459  -2.94280158   1.68353248 
H   -0.70797963  -2.72843937   4.10704854 
H   -1.96900369   1.25552934   1.54607980 
C   -2.10337351  -1.12655730   0.06886251 
H   -3.14689961  -0.80676941  -0.07281327 
H   -2.12944259  -2.22158050  -0.01245461 
O    1.88404013  -0.83571557  -1.23601756 
C    2.14279165  -0.54198634  -2.47505952 
O    1.33619274  -0.11118801  -3.27835684 
C    3.58329035  -0.80765732  -2.88405512 
H    3.75375680  -1.87004860  -3.08992388 
H    4.29920402  -0.51466826  -2.11239545 
H    3.80127292  -0.25897410  -3.79970700 
*
