! EnGrad PBEh-3c
%output 
xyzfile=True 
end 
%scf 
maxiter 250 
end
%output
Print[P_Hirshfeld] = 1
end
% maxcore
4000
*xyz 0 1
Pd   0.49502354   0.33939343  -0.39740838 
O    2.01635823   1.32423850   0.33277013 
C    1.58120651   2.53246762   0.30554513 
O    0.41102129   2.74305267   0.00424564 
C    2.59767351   3.61012644   0.58644875 
H    2.13904560   4.49462204   1.02229620 
H    3.08865975   3.91085888  -0.34318082 
H    3.37696675   3.23415010   1.24295722 
N   -1.29369559  -0.58880961  -1.07207329 
C   -1.12646117  -1.68091704  -2.06264772 
H   -0.59919834  -1.32863507  -2.95228106 
H   -2.11153670  -2.08509236  -2.35141973 
H   -0.54140819  -2.48747611  -1.62583439 
C   -2.05725499   0.48688314  -1.73107990 
H   -2.22412793   1.30292215  -1.03459282 
H   -3.03653359   0.11411806  -2.05684249 
H   -1.52220725   0.86919499  -2.59971141 
C   -1.60814241  -0.83848903   1.45938527 
C   -1.20954221  -1.94777210   2.19177369 
C   -0.96771130  -1.83380197   3.56744113 
C   -1.10990479  -0.58095354   4.21506030 
C   -1.44715766   0.52793037   3.46291080 
C   -1.71221378   0.41973701   2.10486879 
H   -0.97210369  -0.50209412   5.30179539 
H   -1.59497133   1.48139399   3.95087655 
H   -1.14658254  -2.93934050   1.69933613 
H   -0.70114881  -2.74151751   4.12562138 
H   -1.99041669   1.23147970   1.52737356 
C   -2.09730712  -1.12461962   0.07425386 
H   -3.13312284  -0.80515850  -0.07077014 
H   -2.12236095  -2.21588965  -0.02844719 
O    1.87181907  -0.85384943  -1.24463159 
C    2.14700432  -0.55110660  -2.47279269 
O    1.34207971  -0.09272186  -3.27113045 
C    3.57890074  -0.81270358  -2.88478090 
H    3.74273418  -1.87117885  -3.07657246 
H    4.28300869  -0.52191232  -2.11073978 
H    3.80103988  -0.26561639  -3.79626318 
*
