! EnGrad PBEh-3c
%output 
xyzfile=True 
end 
%scf 
maxiter 250 
end
%output
Print[P_Hirshfeld] = 1
end
% maxcore
4000
*xyz 0 1
Pd   0.43373568   0.35257465  -0.36144658 
O    2.01551201   1.38091471   0.59794409 
C    1.65937046   2.61253992   0.30762517 
O    0.56608105   2.83124586  -0.13277973 
C    2.65340036   3.71454357   0.58608291 
H    2.13711771   4.56987594   1.02588144 
H    3.07522062   4.03881905  -0.36253457 
H    3.46363135   3.41309289   1.23861270 
N   -1.34183596  -0.63215055  -1.08844065 
C   -1.25434484  -1.56681326  -2.21882441 
H   -0.85321067  -1.09946704  -3.10487071 
H   -2.24939748  -1.90651336  -2.53934286 
H   -0.64512845  -2.42033714  -1.96580935 
C   -2.16894615   0.48122725  -1.58586780 
H   -2.29672400   1.24934823  -0.84707081 
H   -3.16942110   0.14945813  -1.88804277 
H   -1.70362938   0.93897713  -2.45272559 
C   -1.50887698  -1.02498951   1.37254435 
C   -0.84352640  -2.01006385   2.15292245 
C   -0.72318198  -1.88846520   3.52275436 
C   -1.11399886  -0.72843776   4.14247451 
C   -1.78375961   0.25702936   3.39738304 
C   -1.87482930   0.13089209   2.04286793 
H   -0.98971307  -0.60651397   5.21589675 
H   -2.31493223   0.99142516   3.97006041 
H   -0.58580665  -2.96351448   1.72190001 
H   -0.34369831  -2.71495808   4.11523736 
H   -2.36935213   3.14584678   1.67975813 
C   -2.04980448  -1.34682535   0.02540309 
H   -3.12346027  -1.11039619   0.05861732 
H   -2.04783595  -2.42984412  -0.10412260 
O    1.89582146  -0.68661976  -1.17663727 
C    2.25956323  -0.51128799  -2.42032161 
O    1.55537356  -0.03459696  -3.26035366 
C    3.64090731  -1.03547155  -2.83315321 
H    3.62455562  -2.12180636  -2.90934569 
H    4.40303893  -0.77898445  -2.11975920 
H    3.97295025  -0.63890243  -3.80234664 
*
