! EnGrad PBEh-3c
%output 
xyzfile=True 
end 
%scf 
maxiter 250 
end
%output
Print[P_Hirshfeld] = 1
end
% maxcore
4000
*xyz 0 1
Pd   0.47107124   0.38008462  -0.32684900 
O    2.00092273   1.33819519   0.57289734 
C    1.62271871   2.62322286   0.32223696 
O    0.56085850   2.83645217  -0.14439695 
C    2.66155702   3.71231143   0.58436389 
H    2.14049098   4.56587110   1.02360048 
H    3.08164551   4.03729735  -0.36205538 
H    3.46839057   3.40648636   1.24111636 
N   -1.37041704  -0.64897517  -1.12602297 
C   -1.24340444  -1.59370961  -2.22986301 
H   -0.83139618  -1.10682517  -3.08981586 
H   -2.24776040  -1.92095370  -2.51346814 
H   -0.64236567  -2.43123006  -1.94592788 
C   -2.17675022   0.49698122  -1.59128674 
H   -2.29598263   1.25490876  -0.84529011 
H   -3.16188902   0.13270728  -1.89337481 
H   -1.69025435   0.92314710  -2.46262242 
C   -1.51996747  -0.99711824   1.37716692 
C   -0.88678128  -2.02841668   2.16557598 
C   -0.70999804  -1.88291019   3.52095207 
C   -1.13139196  -0.73561945   4.13793454 
C   -1.77432252   0.27780056   3.40343646 
C   -1.84872602   0.12235268   2.08251572 
H   -0.99153596  -0.60360315   5.21470546 
H   -2.27191035   1.02475877   3.95872017 
H   -0.61813332  -2.97254304   1.71645394 
H   -0.36391518  -2.71892099   4.11658931 
H   -2.34865448   3.11442735   1.66251579 
C   -2.05230726  -1.34562147   0.05063964 
H   -3.11848304  -1.08563087   0.04792247 
H   -2.05157878  -2.42080948  -0.11266776 
O    1.92989847  -0.71002627  -1.17248162 
C    2.23743619  -0.50727118  -2.43749637 
O    1.52852471  -0.02938399  -3.29066290 
C    3.65575475  -1.02199379  -2.81753041 
H    3.63064351  -2.10553519  -2.92198359 
H    4.40873546  -0.76452614  -2.11475103 
H    3.95218330  -0.61290200  -3.80035076 
*
