! EnGrad PBEh-3c
%output 
xyzfile=True 
end 
%scf 
maxiter 250 
end
%output
Print[P_Hirshfeld] = 1
end
% maxcore
4000
*xyz 0 1
Pd   0.53890051   0.41465399  -0.27245331 
O    1.96536304   1.27706047   0.52920238 
C    1.58298252   2.63269556   0.34471516 
O    0.53584726   2.84936221  -0.16922024 
C    2.66703209   3.69771562   0.59017485 
H    2.15140846   4.55823921   1.01929960 
H    3.09551158   4.03064930  -0.36320826 
H    3.47749783   3.39109394   1.24580761 
N   -1.40787895  -0.66839831  -1.15679172 
C   -1.23740852  -1.64013606  -2.23830267 
H   -0.78000432  -1.12835503  -3.06490243 
H   -2.24493960  -1.96227793  -2.46639847 
H   -0.63053517  -2.46478232  -1.89723758 
C   -2.18520199   0.50285010  -1.61421813 
H   -2.29316471   1.26780577  -0.84266699 
H   -3.15200481   0.10242175  -1.90966751 
H   -1.66267904   0.89006791  -2.48572332 
C   -1.52862077  -0.97621683   1.39920458 
C   -0.97762648  -2.05422926   2.18025527 
C   -0.70226525  -1.87775100   3.51880549 
C   -1.15901072  -0.74183122   4.14567834 
C   -1.73655844   0.30640719   3.44526104 
C   -1.80349132   0.12861011   2.12500148 
H   -0.99615451  -0.59946585   5.20737583 
H   -2.17839216   1.11334497   3.94331783 
H   -0.70048686  -2.99150937   1.70723712 
H   -0.40941764  -2.72906011   4.12262691 
H   -2.29852568   3.04212585   1.62239245 
C   -2.06560118  -1.32694060   0.06147231 
H   -3.11130409  -1.03092463   0.02994655 
H   -2.06364119  -2.40194920  -0.12276539 
O    1.98683626  -0.73890882  -1.18205243 
C    2.19196589  -0.49524916  -2.48424383 
O    1.49361658  -0.04750095  -3.31506696 
C    3.66078403  -0.98328459  -2.81445097 
H    3.64791658  -2.06492603  -2.95166888 
H    4.42856108  -0.72400913  -2.09546759 
H    3.90859764  -0.55298018  -3.79096506 
*
