! EnGrad PBEh-3c
%output 
xyzfile=True 
end 
%scf 
maxiter 250 
end
%output
Print[P_Hirshfeld] = 1
end
% maxcore
4000
*xyz 0 1
Pd   0.49059539   0.39003516  -0.31119160 
O    1.99068713   1.32059802   0.56032007 
C    1.61128094   2.62594951   0.32870714 
O    0.55365920   2.84016823  -0.15154215 
C    2.66313298   3.70811013   0.58603653 
H    2.14363350   4.56367432   1.02236251 
H    3.08563676   4.03538376  -0.36238723 
H    3.47101203   3.40205577   1.24246670 
N   -1.38120017  -0.65456597  -1.13487953 
C   -1.24167856  -1.60707312  -2.23229230 
H   -0.81660341  -1.11302238  -3.08264472 
H   -2.24694845  -1.93284857  -2.49991949 
H   -0.63896035  -2.44088783  -1.93191274 
C   -2.17918300   0.49867054  -1.59788737 
H   -2.29517151   1.25862106  -0.84453507 
H   -3.15904392   0.12398981  -1.89806454 
H   -1.68231701   0.91362550  -2.46927185 
C   -1.52245826  -0.99110193   1.38351030 
C   -0.91293039  -2.03584664   2.16980131 
C   -0.70777221  -1.88142516   3.52033419 
C   -1.13934182  -0.73740746   4.14016353 
C   -1.76345241   0.28603476   3.41547536 
C   -1.83570554   0.12415383   2.09474493 
H   -0.99286538  -0.60241226   5.21259568 
H   -2.24499184   1.05025765   3.95428672 
H   -0.64183818  -2.97800236   1.71380094 
H   -0.37701272  -2.72183946   4.11832719 
H   -2.33422528   3.09361590   1.65096659 
C   -2.05613381  -1.34024432   0.05375774 
H   -3.11641663  -1.06988409   0.04274824 
H   -2.05505085  -2.41538069  -0.11557429 
O    1.94628759  -0.71833990  -1.17523651 
C    2.22434790  -0.50381073  -2.45095228 
O    1.51847666  -0.03459882  -3.29768743 
C    3.65720239  -1.01085163  -2.81664402 
H    3.63561544  -2.09384614  -2.93052828 
H    4.41444212  -0.75286362  -2.10920043 
H    3.93963749  -0.59565395  -3.79764916 
*
