! EnGrad PBEh-3c
%output 
xyzfile=True 
end 
%scf 
maxiter 250 
end
%output
Print[P_Hirshfeld] = 1
end
% maxcore
4000
*xyz 0 1
Pd   0.47576648   0.38247756  -0.32308365 
O    1.99846123   1.33396336   0.56987271 
C    1.61996812   2.62387857   0.32379294 
O    0.55912718   2.83734582  -0.14611526 
C    2.66193601   3.71130109   0.58476613 
H    2.14124671   4.56534281   1.02330277 
H    3.08260534   4.03683716  -0.36213518 
H    3.46902099   3.40542088   1.24144109 
N   -1.37301021  -0.65031967  -1.12815283 
C   -1.24298939  -1.59692332  -2.23044722 
H   -0.82783876  -1.10831549  -3.08809132 
H   -2.24756514  -1.92381422  -2.51020991 
H   -0.64154674  -2.43355260  -1.94255747 
C   -2.17733527   0.49738748  -1.59287409 
H   -2.29578757   1.25580151  -0.84510854 
H   -3.16120482   0.13061087  -1.89450262 
H   -1.68834555   0.92085731  -2.46422150 
C   -1.52056647  -0.99567142   1.37869240 
C   -0.89306971  -2.03020346   2.16659211 
C   -0.70946276  -1.88255307   3.52080348 
C   -1.13330377  -0.73604944   4.13847057 
C   -1.77170843   0.27978075   3.40633162 
C   -1.84559480   0.12278583   2.08545665 
H   -0.99185567  -0.60331676   5.21419810 
H   -2.26543689   1.03089084   3.95765400 
H   -0.62383395  -2.97385592   1.71581593 
H   -0.36706493  -2.71962284   4.11700724 
H   -2.34518449   3.10942253   1.65973840 
C   -2.05322748  -1.34432835   0.05138949 
H   -3.11798610  -1.08184403   0.04667815 
H   -2.05241376  -2.41950395  -0.11336674 
O    1.93383978  -0.71202556  -1.17314413 
C    2.23428867  -0.50643900  -2.44073230 
O    1.52610832  -0.03063807  -3.29235219 
C    3.65610288  -1.01931428  -2.81731725 
H    3.63183918  -2.10272416  -2.92403844 
H    4.41010782  -0.76172149  -2.11341620 
H    3.94916624  -0.60875412  -3.79970107 
*
