! EnGrad PBEh-3c
%output 
xyzfile=True 
end 
%scf 
maxiter 250 
end
%output
Print[P_Hirshfeld] = 1
end
% maxcore
4000
*xyz 0 1
Pd   0.48555356   0.38746557  -0.31523490 
O    1.99333033   1.32514223   0.56356797 
C    1.61423458   2.62524539   0.32703631 
O    0.55551831   2.83920861  -0.14969701 
C    2.66272601   3.70919506   0.58560459 
H    2.14282199   4.56424161   1.02268220 
H    3.08460608   4.03587791  -0.36230153 
H    3.47033507   3.40319990   1.24211799 
N   -1.37841558  -0.65312223  -1.13259245 
C   -1.24212424  -1.60362219  -2.23166498 
H   -0.82042343  -1.11142204  -3.08449656 
H   -2.24715812  -1.92977689  -2.50341823 
H   -0.63983972  -2.43839385  -1.93553195 
C   -2.17855477   0.49823429  -1.59618285 
H   -2.29538097   1.25766241  -0.84473005 
H   -3.15977863   0.12624097  -1.89685349 
H   -1.68436671   0.91608432  -2.46755473 
C   -1.52181505  -0.99265555   1.38187221 
C   -0.90617776  -2.03392796   2.16871018 
C   -0.70834700  -1.88180865   3.52049375 
C   -1.13728888  -0.73694574   4.13958793 
C   -1.76625946   0.28390840   3.41236649 
C   -1.83906789   0.12368871   2.09158691 
H   -0.99252208  -0.60271979   5.21314050 
H   -2.25194315   1.04367293   3.95543160 
H   -0.63571674  -2.97659257   1.71448604 
H   -0.37363047  -2.72108581   4.11787841 
H   -2.33795141   3.09899015   1.65394900 
C   -2.05514566  -1.34163289   0.05295254 
H   -3.11695025  -1.07395047   0.04408441 
H   -2.05415424  -2.41678260  -0.11482372 
O    1.94205533  -0.71619303  -1.17452510 
C    2.22772776  -0.50470434  -2.44747748 
O    1.52107142  -0.03325217  -3.29587345 
C    3.65682856  -1.01372893  -2.81687291 
H    3.63433151  -2.09686467  -2.92832173 
H    4.41296846  -0.75587530  -2.11063379 
H    3.94287726  -0.60010801  -3.79834681 
*
