! EnGrad PBEh-3c
%output 
xyzfile=True 
end 
%scf 
maxiter 250 
end
%output
Print[P_Hirshfeld] = 1
end
% maxcore
4000
*xyz 0 1
Pd   0.61061148   0.43819866  -0.23547733 
O    1.92777157   1.24900311   0.48011825 
C    1.55702984   2.62000660   0.36133270 
O    0.49930810   2.86281225  -0.18985442 
C    2.65962882   3.68058441   0.59711143 
H    2.15810551   4.55184470   1.01466089 
H    3.10157527   4.02415642  -0.36359813 
H    3.48309635   3.37746471   1.24872493 
N   -1.43064691  -0.67309891  -1.16830350 
C   -1.23569958  -1.66662332  -2.25090402 
H   -0.72703448  -1.12727456  -3.05440022 
H   -2.24924121  -1.99757190  -2.43257934 
H   -0.61496864  -2.49028378  -1.86981647 
C   -2.19374961   0.51089690  -1.62728139 
H   -2.29255396   1.28236862  -0.82356746 
H   -3.15233986   0.08497741  -1.91881249 
H   -1.64206423   0.87694425  -2.50014914 
C   -1.53458936  -0.96740038   1.41884675 
C   -1.04895379  -2.06782823   2.18555701 
C   -0.68605396  -1.86927298   3.51085673 
C   -1.18618946  -0.74706715   4.16358094 
C   -1.71474552   0.32648959   3.49636617 
C   -1.77442303   0.15209039   2.16505605 
H   -1.01133687  -0.59763856   5.20093670 
H   -2.12002552   1.21296965   3.93939607 
H   -0.74761915  -2.99801799   1.68126809 
H   -0.41499095  -2.73025066   4.11791470 
H   -2.26356754   2.91576469   1.59626140 
C   -2.06732081  -1.30187787   0.04679591 
H   -3.10316651  -0.99045480   0.00324587 
H   -2.04472635  -2.38682476  -0.13696103 
O    2.03635904  -0.78374268  -1.20209762 
C    2.18115664  -0.50738037  -2.49314213 
O    1.43743268  -0.02326915  -3.35229277 
C    3.65213432  -0.96169439  -2.80985667 
H    3.65528446  -2.04786500  -2.96181643 
H    4.44393624  -0.70308504  -2.06381616 
H    3.86730012  -0.52246481  -3.77426692 
*
