! EnGrad PBEh-3c
%output 
xyzfile=True 
end 
%scf 
maxiter 250 
end
%output
Print[P_Hirshfeld] = 1
end
% maxcore
4000
*xyz 0 1
Pd   0.33076305   0.08929874  -0.14865441 
O    1.81633426   1.25097842   0.73406548 
C    1.86729416   2.45205650   0.53525696 
O    0.78200289   2.97738292   0.04205171 
C    3.02034376   3.38258015   0.76876829 
H    2.74630399   4.34056052   1.20682076 
H    3.49310167   3.56198475  -0.19747081 
H    3.70064810   2.82557358   1.40431318 
N   -1.22260589  -1.04409954  -0.88316680 
C   -0.78187799  -2.44056874  -1.04613512 
H    0.07010552  -2.50636943  -1.71425493 
H   -1.56328671  -3.06324395  -1.50022193 
H   -0.48100691  -2.86193080  -0.09196707 
C   -1.68030310  -0.56567591  -2.19590432 
H   -1.89609479   0.49924091  -2.15943857 
H   -2.58286674  -1.09610487  -2.52377198 
H   -0.93660136  -0.75675221  -2.96221993 
C   -1.93332281  -1.03005859   1.48426234 
C   -2.65229993  -1.64196018   2.50476211 
C   -2.25441248  -1.53998853   3.82933041 
C   -1.12473233  -0.81151225   4.14997813 
C   -0.40076112  -0.21366582   3.12682126 
C   -0.82782266  -0.26164444   1.80659285 
H   -0.79969234  -0.72684548   5.17992237 
H    0.51156368   0.26469639   3.46061281 
H   -3.54477511  -2.21657047   2.28222316 
H   -2.82075773  -2.02092569   4.61610281 
H   -0.38699206   4.10242665   0.36076315 
C   -2.36942882  -1.01232219   0.05445295 
H   -2.94576653  -0.09815882  -0.12086726 
H   -3.07052280  -1.83994726  -0.11800903 
O    1.29038761   0.74828367  -1.88088597 
C    2.01491933  -0.06619926  -2.55214744 
O    2.03562877  -1.26724933  -2.33827485 
C    2.95453995   0.53024585  -3.58564837 
H    3.31086932  -0.22281711  -4.28670964 
H    3.83007106   0.94325048  -3.07941390 
H    2.50104462   1.33605135  -4.16192688 
*
