! EnGrad PBEh-3c
%output 
xyzfile=True 
end 
%scf 
maxiter 250 
end
%output
Print[P_Hirshfeld] = 1
end
% maxcore
4000
*xyz 0 1
Pd   0.25173670   0.14578324  -0.01810911 
O    1.74082468   1.43653133   0.65848399 
C    1.64372463   2.64275724   0.51681536 
O    0.59608677   3.08696983   0.08449412 
C    2.91568917   3.42703498   0.73257239 
H    2.69245625   4.36870714   1.18411364 
H    3.43017844   3.61966387  -0.21076772 
H    3.68249405   2.92145386   1.36374291 
N   -1.25637385  -1.01472449  -0.87195660 
C   -0.81610219  -2.40663274  -1.12642970 
H    0.03417437  -2.42201042  -1.81596664 
H   -1.64554707  -2.98980680  -1.56169864 
H   -0.51514269  -2.87260149  -0.19046101 
C   -1.72104184  -0.47153995  -2.16780114 
H   -1.91430887   0.59693478  -2.08622957 
H   -2.65280362  -0.97472274  -2.47850287 
H   -0.97342435  -0.62416032  -2.94847481 
C   -1.88423225  -1.04558590   1.48705565 
C   -2.57954417  -1.71854134   2.48400498 
C   -2.18632584  -1.63221272   3.81673768 
C   -1.11192546  -0.81338227   4.11304597 
C   -0.40205749  -0.15797850   3.10212410 
C   -0.73260849  -0.30557529   1.75849682 
H   -0.80191871  -0.73490137   5.15377741 
H    0.42004734   0.45307351   3.45140914 
H   -3.43361743  -2.35395719   2.24347800 
H   -2.72935938  -2.17065592   4.59722363 
H    0.03643462   3.65935131   0.46764078 
C   -2.37925806  -1.02137360   0.07604372 
H   -2.94672571  -0.09674260  -0.07455748 
H   -3.06873977  -1.85501964  -0.13753424 
O    1.29634861   0.68315597  -1.86767780 
C    2.05028224  -0.14870791  -2.49566908 
O    2.07788780  -1.35191073  -2.28954082 
C    3.01417102   0.42643411  -3.54227440 
H    3.37989656  -0.35389416  -4.21566378 
H    3.89192646   0.84421959  -3.04261207 
H    2.58925289   1.23216999  -4.14924666 
*
