! EnGrad PBEh-3c
%output 
xyzfile=True 
end 
%scf 
maxiter 250 
end
%output
Print[P_Hirshfeld] = 1
end
% maxcore
4000
*xyz 0 1
Pd   0.22275125   0.16631230   0.00191506 
O    1.67355691   1.45811007   0.66151138 
C    1.70677248   2.64603719   0.53468041 
O    0.55700868   3.04410099  -0.05560266 
C    2.87920732   3.48253276   0.72642005 
H    2.65848978   4.44261523   1.18370034 
H    3.36611868   3.65607714  -0.23128943 
H    3.60359112   2.97410588   1.31544502 
N   -1.26561400  -0.99765094  -0.88297176 
C   -0.83692148  -2.38057818  -1.17375198 
H   -0.00033210  -2.36679108  -1.86690444 
H   -1.68550753  -2.93590558  -1.59981568 
H   -0.53422277  -2.88003127  -0.25684857 
C   -1.74618005  -0.40723083  -2.14641158 
H   -1.92841271   0.65840362  -2.03593571 
H   -2.68238848  -0.89305296  -2.44842057 
H   -1.00351681  -0.53978259  -2.92764696 
C   -1.86438248  -1.08444600   1.48020218 
C   -2.54025789  -1.77650942   2.47495739 
C   -2.13828659  -1.68330117   3.79543141 
C   -1.09949819  -0.81716892   4.09700185 
C   -0.39552224  -0.13054260   3.10186955 
C   -0.70410648  -0.31324861   1.72887022 
H   -0.79951313  -0.72544039   5.12673298 
H    0.36868912   0.56798421   3.43439466 
H   -3.35238091  -2.42808354   2.21248071 
H   -2.65247661  -2.25600870   4.56998843 
H    0.08795826   3.62747563   0.65268128 
C   -2.38906679  -1.02850754   0.09033056 
H   -2.95152163  -0.10030881  -0.04426234 
H   -3.06469669  -1.85922635  -0.14480469 
O    1.29670181   0.63547509  -1.84836740 
C    2.06302931  -0.20084848  -2.45552559 
O    2.10069922  -1.40637295  -2.25321675 
C    3.04844118   0.36531446  -3.51152797 
H    3.41480565  -0.43358074  -4.16083849 
H    3.92911628   0.78091893  -3.01435366 
H    2.64127264   1.15854340  -4.13052985 
*
