! EnGrad PBEh-3c
%output 
xyzfile=True 
end 
%scf 
maxiter 250 
end
%output
Print[P_Hirshfeld] = 1
end
% maxcore
4000
*xyz 0 1
Pd   0.19942279   0.17940842  -0.00840491 
O    1.67332695   1.41515107   0.74023359 
C    1.70838102   2.60527924   0.48246710 
O    0.53226506   3.08498215  -0.10660212 
C    2.83200874   3.55684443   0.71194920 
H    2.61408490   4.53329518   1.18073336 
H    3.28563140   3.70627119  -0.26563879 
H    3.53915258   3.01549360   1.29075100 
N   -1.28433790  -0.97699817  -0.89120050 
C   -0.86255899  -2.34997271  -1.22154274 
H   -0.03710889  -2.30720497  -1.92029801 
H   -1.72419139  -2.87380718  -1.64482462 
H   -0.55251631  -2.88627243  -0.32889123 
C   -1.77230178  -0.33306200  -2.12125330 
H   -1.94575972   0.72953212  -1.97442073 
H   -2.71166273  -0.80225909  -2.41695884 
H   -1.03536987  -0.44504418  -2.90427215 
C   -1.83265384  -1.12158489   1.47355032 
C   -2.48643385  -1.84295401   2.45844341 
C   -2.08134860  -1.73429455   3.77145631 
C   -1.07735060  -0.82300745   4.07181255 
C   -0.39051375  -0.10184516   3.07922086 
C   -0.69405265  -0.31774619   1.71320343 
H   -0.79197449  -0.70338918   5.10379701 
H    0.31407189   0.67979125   3.40040398 
H   -3.27587502  -2.51539479   2.17304613 
H   -2.55596163  -2.34301922   4.53271489 
H    0.11612320   3.60745198   0.76912565 
C   -2.39113688  -1.03694980   0.09775484 
H   -2.95936223  -0.10687330  -0.00778837 
H   -3.06262088  -1.86398416  -0.15481955 
O    1.29830096   0.58184060  -1.82815766 
C    2.07931874  -0.26395541  -2.41088923 
O    2.12097804  -1.46952056  -2.20793259 
C    3.08098722   0.29367097  -3.46327373 
H    3.44514659  -0.52088592  -4.09229011 
H    3.96694979   0.71053557  -2.97651455 
H    2.68960864   1.07924034  -4.10588665 
*
