! EnGrad PBEh-3c
%output 
xyzfile=True 
end 
%scf 
maxiter 250 
end
%output
Print[P_Hirshfeld] = 1
end
% maxcore
4000
*xyz 0 1
Pd   0.23329475   0.15923763  -0.00307601 
O    1.69105396   1.45327655   0.65491683 
C    1.70280308   2.64812901   0.53820769 
O    0.57055245   3.04656950  -0.01932263 
C    2.89077017   3.45751586   0.72831218 
H    2.67100022   4.41631441   1.18452624 
H    3.39017376   3.64241634  -0.22322864 
H    3.63014796   2.95628248   1.33085233 
N   -1.26128588  -1.00405041  -0.88002540 
C   -0.82884265  -2.39019667  -1.15667761 
H    0.01203084  -2.38688332  -1.84814777 
H   -1.67117232  -2.95579286  -1.58565396 
H   -0.52739800  -2.87740922  -0.23255901 
C   -1.73719994  -0.43102914  -2.15427642 
H   -1.92313802   0.63562523  -2.05467910 
H   -2.67160479  -0.92296193  -2.45933024 
H   -0.99252492  -0.57079342  -2.93519171 
C   -1.87352154  -1.07134317   1.48231751 
C   -2.55613256  -1.75575762   2.47840356 
C   -2.15573399  -1.66450761   3.80301746 
C   -1.10441927  -0.81568464   4.10356746 
C   -0.39709004  -0.14019087   3.10558727 
C   -0.71254517  -0.31000090   1.73663571 
H   -0.80068460  -0.72944603   5.13574846 
H    0.38705357   0.52614828   3.44089282 
H   -3.38077975  -2.40006802   2.22420162 
H   -2.68132876  -2.22510389   4.58042765 
H    0.06138758   3.64829249   0.59524378 
C   -2.38640033  -1.02572177   0.08633741 
H   -2.94953704  -0.09898643  -0.05551863 
H   -3.06591819  -1.85755360  -0.14201710 
O    1.29647480   0.65301388  -1.85544843 
C    2.05799984  -0.18140239  -2.46991477 
O    2.09256216  -1.38641244  -2.26682775 
C    3.03605951   0.38843554  -3.52410726 
H    3.40236721  -0.40437577  -4.18124886 
H    3.91562196   0.80415539  -3.02496911 
H    2.62278738   1.18506904  -4.13724434 
*
