! EnGrad PBEh-3c
%output 
xyzfile=True 
end 
%scf 
maxiter 250 
end
%output
Print[P_Hirshfeld] = 1
end
% maxcore
4000
*xyz 0 1
Pd   0.23126558   0.15640450   0.00212669 
O    1.66615829   1.50772975   0.62930279 
C    1.58449121   2.71946562   0.50604844 
O    0.69704490   2.97450812   0.04875382 
C    2.87154120   3.45332468   0.71809715 
H    2.67365075   4.39695685   1.18109656 
H    3.39874978   3.63866622  -0.21720567 
H    3.64951161   2.95363825   1.33767715 
N   -1.26296304  -0.99898855  -0.86628120 
C   -0.82971848  -2.38872138  -1.15320874 
H    0.01841115  -2.39109313  -1.84983388 
H   -1.67285836  -2.96292723  -1.58445517 
H   -0.52685148  -2.87757896  -0.22784323 
C   -1.73440640  -0.43660426  -2.15209223 
H   -1.92173023   0.63262718  -2.05897199 
H   -2.67554910  -0.92916965  -2.46302664 
H   -0.98889109  -0.57567874  -2.94073274 
C   -1.86850837  -1.06512742   1.48093932 
C   -2.55391457  -1.74387837   2.47457329 
C   -2.15667714  -1.66362403   3.80888283 
C   -1.10471114  -0.81110135   4.09818801 
C   -0.39667881  -0.14136061   3.09832481 
C   -0.71693928  -0.32005826   1.75181987 
H   -0.80267770  -0.73421002   5.13738731 
H    0.38852757   0.52125293   3.44594535 
H   -3.38739728  -2.39883230   2.22701855 
H   -2.69271539  -2.22469886   4.58798069 
H    0.08043391   3.61903968   0.57913977 
C   -2.38072600  -1.02407012   0.07988769 
H   -2.94882067  -0.09712374  -0.05754467 
H   -3.06921440  -1.86003910  -0.14154448 
O    1.29659338   0.65161536  -1.85375546 
C    2.05976531  -0.17622359  -2.47657730 
O    2.09136104  -1.37836162  -2.26883975 
C    3.03428057   0.38866337  -3.52403415 
H    3.40329149  -0.40103514  -4.18769277 
H    3.91429806   0.80796254  -3.02845102 
H    2.62091634   1.19092783  -4.14106306 
*
