! EnGrad PBEh-3c
%output 
xyzfile=True 
end 
%scf 
maxiter 250 
end
%output
Print[P_Hirshfeld] = 1
end
% maxcore
4000
*xyz 0 1
Pd   0.30136470   0.11409325  -0.08077832 
O    1.85968287   1.24352550   0.72811630 
C    1.81931876   2.50698740   0.55244490 
O    0.65603558   3.04670451   0.01397924 
C    3.02245241   3.35014795   0.76844926 
H    2.73289261   4.34036513   1.20355778 
H    3.49035253   3.57438792  -0.19962412 
H    3.71448782   2.85122919   1.40237938 
N   -1.23212884  -1.05220163  -0.89752283 
C   -0.78020759  -2.44679453  -1.06256609 
H    0.06550896  -2.49050694  -1.72820174 
H   -1.57817834  -3.04927083  -1.50545818 
H   -0.48778910  -2.86269565  -0.10369503 
C   -1.69074820  -0.55162304  -2.20187928 
H   -1.89776350   0.51305234  -2.14916021 
H   -2.59279522  -1.07847829  -2.51235651 
H   -0.93836938  -0.73648016  -2.95913021 
C   -1.93574671  -1.02132099   1.49460143 
C   -2.65286382  -1.66575051   2.50084806 
C   -2.24887375  -1.55199558   3.83202920 
C   -1.12900611  -0.81869676   4.14407762 
C   -0.39768880  -0.19898140   3.14035551 
C   -0.77008150  -0.26626241   1.75103887 
H   -0.79871529  -0.72976890   5.18056060 
H    0.49712080   0.29384356   3.45212300 
H   -3.52956735  -2.23767921   2.27818002 
H   -2.80963121  -2.04230226   4.61210941 
H   -0.29483158   4.01624072   0.37323281 
C   -2.38171213  -1.01416124   0.07420709 
H   -2.94230572  -0.09739954  -0.11485989 
H   -3.06588952  -1.84082672  -0.12758020 
O    1.29033512   0.75189117  -1.89072043 
C    2.02131031  -0.08848188  -2.53392572 
O    2.04539438  -1.29035819  -2.33739420 
C    2.96384626   0.52121162  -3.58768406 
H    3.32085967  -0.24283864  -4.27544383 
H    3.83877027   0.92915280  -3.07390715 
H    2.51453742   1.32229247  -4.15995112 
*
