! EnGrad PBEh-3c
%output 
xyzfile=True 
end 
%scf 
maxiter 250 
end
%output
Print[P_Hirshfeld] = 1
end
% maxcore
4000
*xyz 0 1
Pd   0.21797156   0.16995325   0.00695991 
O    1.65917150   1.45227609   0.65877682 
C    1.72821239   2.65808146   0.54467490 
O    0.56319221   3.01253015  -0.10137603 
C    2.87705580   3.48613426   0.72682350 
H    2.65273690   4.45616498   1.18452054 
H    3.35631790   3.66156317  -0.23425493 
H    3.58693770   2.98444675   1.30444322 
N   -1.26564997  -0.99575524  -0.88740580 
C   -0.83943332  -2.37688977  -1.18179639 
H   -0.00670873  -2.35780521  -1.87449991 
H   -1.69177414  -2.92703288  -1.60563681 
H   -0.53738291  -2.88122022  -0.26766400 
C   -1.75062780  -0.39700568  -2.14353955 
H   -1.93060274   0.66774938  -2.02814169 
H   -2.68652585  -0.87992222  -2.44332102 
H   -1.00864364  -0.52649927  -2.92381591 
C   -1.86406612  -1.09217164   1.47890740 
C   -2.53615262  -1.78721952   2.47423632 
C   -2.13061545  -1.69119377   3.79139787 
C   -1.09815775  -0.81812375   4.09615925 
C   -0.39408925  -0.12568471   3.10683409 
C   -0.69709168  -0.31256094   1.71928163 
H   -0.79927379  -0.72419118   5.12164802 
H    0.35983253   0.58637869   3.43200881 
H   -3.33748507  -2.43860436   2.20799323 
H   -2.64012511  -2.26950982   4.56557037 
H    0.07675242   3.64532557   0.70112004 
C   -2.39222770  -1.02957008   0.09468278 
H   -2.95208913  -0.10111901  -0.03962793 
H   -3.06328914  -1.85950091  -0.14573539 
O    1.29683216   0.62868679  -1.84561388 
C    2.06451873  -0.20907136  -2.44858052 
O    2.10454684  -1.41534072  -2.24777096 
C    3.05414179   0.35683240  -3.50848052 
H    3.42053215  -0.44608480  -4.15223147 
H    3.93516545   0.77089367  -3.00997770 
H    2.65019597   1.14612521  -4.12715187 
*
