! EnGrad PBEh-3c
%output 
xyzfile=True 
end 
%scf 
maxiter 250 
end
%output
Print[P_Hirshfeld] = 1
end
% maxcore
4000
*xyz 0 1
Pd   0.29781484   0.11693970  -0.07401600 
O    1.86056304   1.26245404   0.72423402 
C    1.80635350   2.49919404   0.55188360 
O    0.64253937   3.05818966   0.01770069 
C    3.01718091   3.35693870   0.76668539 
H    2.73194262   4.33771873   1.20147376 
H    3.48866843   3.57626462  -0.19968472 
H    3.71750803   2.85325981   1.40329926 
N   -1.23419149  -1.05128331  -0.89600838 
C   -0.78184737  -2.44584240  -1.06534029 
H    0.06495768  -2.48763589  -1.73229013 
H   -1.58130024  -3.04685427  -1.50756354 
H   -0.48903062  -2.86299396  -0.10693384 
C   -1.69197673  -0.54838439  -2.20123056 
H   -1.89834361   0.51651646  -2.14667422 
H   -2.59578588  -1.07448356  -2.51081379 
H   -0.93942653  -0.73181663  -2.95897595 
C   -1.93222656  -1.01980842   1.49501477 
C   -2.64831593  -1.66743870   2.50237433 
C   -2.24865870  -1.55637797   3.82983405 
C   -1.12763409  -0.81840210   4.14451271 
C   -0.39973772  -0.19725794   3.13381400 
C   -0.76536435  -0.26888950   1.75186051 
H   -0.79907235  -0.73046738   5.17973737 
H    0.49512192   0.30114347   3.45256312 
H   -3.52747284  -2.24369385   2.27666556 
H   -2.80677483  -2.04759139   4.61184173 
H   -0.27445110   3.99485300   0.37453454 
C   -2.38187816  -1.01488817   0.07415736 
H   -2.94228602  -0.09706314  -0.11327154 
H   -3.06595761  -1.84147221  -0.12857891 
O    1.29062181   0.74971744  -1.89078980 
C    2.02284648  -0.08993673  -2.53226911 
O    2.04703789  -1.29472945  -2.33571543 
C    2.96618333   0.51669135  -3.58552564 
H    3.32341656  -0.24742861  -4.27318557 
H    3.84087823   0.92572783  -3.07276494 
H    2.51732881   1.31945551  -4.16013196 
*
