! EnGrad PBEh-3c
%output 
xyzfile=True 
end 
%scf 
maxiter 250 
end
%output
Print[P_Hirshfeld] = 1
end
% maxcore
4000
*xyz 0 1
Pd   0.28777050   0.12507210  -0.05348305 
O    1.86704974   1.28720753   0.71725788 
C    1.77987742   2.50216053   0.55313743 
O    0.60088127   3.08777262   0.02018792 
C    3.00870022   3.36127662   0.76387370 
H    2.72778739   4.33453131   1.19782346 
H    3.48515282   3.58155119  -0.20034907 
H    3.72328698   2.86141831   1.40347839 
N   -1.23886544  -1.05067280  -0.89575043 
C   -0.78437531  -2.44486939  -1.07270465 
H    0.06292918  -2.48026109  -1.74146663 
H   -1.58893757  -3.04048998  -1.51222082 
H   -0.49219080  -2.86364755  -0.11456595 
C   -1.69577088  -0.54052944  -2.20072575 
H   -1.89964530   0.52471176  -2.14069962 
H   -2.60236399  -1.06465547  -2.50644261 
H   -0.94173980  -0.72058227  -2.95821206 
C   -1.92696565  -1.01673806   1.49721833 
C   -2.64137186  -1.67446810   2.50294992 
C   -2.24598530  -1.56525589   3.82778918 
C   -1.12652091  -0.81923424   4.14310893 
C   -0.40196741  -0.19190597   3.12713072 
C   -0.74977429  -0.27370130   1.74434761 
H   -0.79938856  -0.73199704   5.17864891 
H    0.48855344   0.31792306   3.45189507 
H   -3.52056303  -2.25692701   2.27358536 
H   -2.79995341  -2.06016517   4.61064489 
H   -0.22617316   3.94502459   0.37866836 
C   -2.38387988  -1.01619633   0.07721473 
H   -2.94179530  -0.09649779  -0.10950056 
H   -3.06540797  -1.84271483  -0.13151423 
O    1.29116473   0.74636692  -1.89209174 
C    2.02651945  -0.09694461  -2.52661945 
O    2.05129392  -1.30462705  -2.33257723 
C    2.97161252   0.50771747  -3.58228383 
H    3.32945135  -0.25857354  -4.26748948 
H    3.84597402   0.91750818  -3.06986563 
H    2.52450572   1.31197325  -4.15995916 
*
