! EnGrad PBEh-3c
%output 
xyzfile=True 
end 
%scf 
maxiter 250 
end
%output
Print[P_Hirshfeld] = 1
end
% maxcore
4000
*xyz 0 1
Pd   0.27593241   0.13383671  -0.04194187 
O    1.82502797   1.36746026   0.69282415 
C    1.72275155   2.52891352   0.53280190 
O    0.54457662   3.14936802   0.07779602 
C    2.96184675   3.40733202   0.75074275 
H    2.71821492   4.33111218   1.18656977 
H    3.46643244   3.59514343  -0.20272983 
H    3.72191497   2.87938189   1.39671574 
N   -1.24931291  -1.03433056  -0.87664043 
C   -0.79993850  -2.42866128  -1.09234591 
H    0.05509399  -2.45952314  -1.77352826 
H   -1.61171164  -3.02299732  -1.53241663 
H   -0.50083126  -2.86679630  -0.14346135 
C   -1.70368770  -0.51449361  -2.18704242 
H   -1.90513420   0.55288652  -2.12013626 
H   -2.62494080  -1.03135633  -2.49730193 
H   -0.95354346  -0.68382905  -2.95727708 
C   -1.89881190  -1.01963370   1.49358593 
C   -2.60910083  -1.68521047   2.49846105 
C   -2.22590829  -1.59417905   3.82354390 
C   -1.11935736  -0.81537700   4.13161941 
C   -0.40886793  -0.18020755   3.09442835 
C   -0.75152177  -0.29250614   1.77329706 
H   -0.80118809  -0.73513628   5.17205303 
H    0.46401367   0.37105877   3.45684673 
H   -3.49338354  -2.29894369   2.26223677 
H   -2.77498528  -2.10352262   4.60796338 
H   -0.08058282   3.78031367   0.38249646 
C   -2.37781050  -1.01899738   0.06931720 
H   -2.94412923  -0.09552218  -0.09585950 
H   -3.06874239  -1.84882374  -0.13358403 
O    1.29416799   0.72048246  -1.88307360 
C    2.03814238  -0.11442345  -2.51858703 
O    2.06124544  -1.32043703  -2.31544946 
C    2.98885652   0.47176171  -3.56265584 
H    3.35014529  -0.29545533  -4.24955695 
H    3.86368023   0.88934118  -3.06025861 
H    2.54868698   1.28437880  -4.15920324 
*
