! EnGrad PBEh-3c
%output 
xyzfile=True 
end 
%scf 
maxiter 250 
end
%output
Print[P_Hirshfeld] = 1
end
% maxcore
4000
*xyz 0 1
Pd   0.26255109   0.14017230  -0.02879919 
O    1.78026911   1.39891895   0.67389970 
C    1.67501620   2.60223408   0.52250326 
O    0.54275306   3.14638060   0.10337484 
C    2.93901147   3.41314678   0.74021931 
H    2.70239074   4.35378351   1.18570749 
H    3.44678144   3.60962540  -0.20736671 
H    3.69991787   2.90445163   1.37751281 
N   -1.25289294  -1.02303740  -0.87495478 
C   -0.80890904  -2.41609488  -1.11228300 
H    0.04250169  -2.43834327  -1.79807541 
H   -1.63111918  -3.00400662  -1.54967693 
H   -0.50895722  -2.86997201  -0.17071290 
C   -1.71398167  -0.48999562  -2.17609978 
H   -1.91038835   0.57807936  -2.10062908 
H   -2.64078775  -0.99878732  -2.48667858 
H   -0.96525365  -0.64977195  -2.95256476 
C   -1.89253878  -1.03526259   1.49028676 
C   -2.59308365  -1.70515641   2.48898751 
C   -2.20198853  -1.61561890   3.82088720 
C   -1.11573660  -0.81458722   4.12089507 
C   -0.40489892  -0.16675732   3.10413118 
C   -0.74088614  -0.29792429   1.76202409 
H   -0.80151776  -0.73526659   5.16243590 
H    0.43669847   0.41705600   3.45429553 
H   -3.45803440  -2.33025078   2.25217312 
H   -2.74871750  -2.14210636   4.60210645 
H    0.01319087   3.68064696   0.40873859 
C   -2.37848258  -1.01994909   0.07401305 
H   -2.94561899  -0.09654125  -0.08354494 
H   -3.06848903  -1.85236798  -0.13541573 
O    1.29621930   0.69981811  -1.87503264 
C    2.04527256  -0.13417206  -2.50575481 
O    2.07077022  -1.33793737  -2.30047669 
C    3.00354764   0.44638747  -3.55191028 
H    3.36753759  -0.32899074  -4.23044017 
H    3.88010809   0.86337330  -3.05009300 
H    2.57252587   1.25395722  -4.15356985 
*
