! EnGrad PBEh-3c
%output 
xyzfile=True 
end 
%scf 
maxiter 250 
end
%output
Print[P_Hirshfeld] = 1
end
% maxcore
4000
*xyz 0 1
C   -1.42016737   0.16898382  -0.71836556 
C   -2.18847630  -0.88358226  -1.20424482 
C   -1.92969220  -2.18468100  -0.81212198 
C   -0.90184121  -2.45721212   0.07473178 
C   -0.43078624  -0.15545333   0.18765050 
C   -0.15731438  -1.42970378   0.63687847 
H   -1.65956071   1.14532196  -1.11673611 
H   -2.98683453  -0.68612349  -1.90652928 
H   -2.53751054  -2.99199108  -1.20078925 
H    0.63297749  -1.69477938   1.32460908 
H   -0.70060853  -3.47819536   0.36591985 
Pd   1.46536493   1.07587834  -0.18213393 
O    3.44024482   1.42751660  -0.99771221 
O    2.69638409  -0.54517045  -0.47303651 
O    0.33500371   2.76408212   0.17809146 
C   -0.10702901   2.86840130   1.31042521 
O    0.22477122   2.05722969   2.25791434 
H   -1.08374755   1.43321608   2.92129740 
C    3.60617954   0.19566293  -0.93273560 
H    4.53737802  -0.28083929  -1.27044122 
H   -0.83472829   3.65142872   1.55734233 
*
