! EnGrad PBEh-3c
%output 
xyzfile=True 
end 
%scf 
maxiter 250 
end
%output
Print[P_Hirshfeld] = 1
end
% maxcore
4000
*xyz 0 1
C   -1.41619506   0.15811504  -0.66180541 
C   -2.15992933  -0.89380077  -1.19375262 
C   -1.85008043  -2.20009324  -0.87555458 
C   -0.90441844  -2.44549305   0.10261623 
C   -0.29842692  -0.11675399   0.13317606 
C   -0.16692942  -1.40654007   0.64979443 
H   -1.66595227   1.17618450  -0.94935376 
H   -2.88634610  -0.68041603  -1.95219454 
H   -2.32105500  -3.02280596  -1.39620452 
H    0.57737624  -1.60899967   1.41198223 
H   -0.62269143  -3.44858954   0.35227850 
Pd   1.30783225   0.95568879  -0.09256591 
O    3.32094070   1.37013492  -1.08113729 
O    2.60796678  -0.58653239  -0.39941470 
O    0.36510494   2.74484048   0.30091340 
C   -0.20092827   2.85115720   1.35886234 
O    0.01195353   1.95259252   2.31946010 
H   -0.78075341   1.61715339   2.66270499 
C    3.48073226   0.14761494  -0.95192506 
H    4.39006228  -0.34617462  -1.32391814 
H   -0.82288411   3.76418008   1.58244490 
*
