! EnGrad PBEh-3c
%output 
xyzfile=True 
end 
%scf 
maxiter 250 
end
%output
Print[P_Hirshfeld] = 1
end
% maxcore
4000
*xyz 0 1
C   -1.41068732   0.15936812  -0.65878905 
C   -2.14154212  -0.89289140  -1.20057515 
C   -1.82426773  -2.20127105  -0.89155552 
C   -0.88660211  -2.44720247   0.09582223 
C   -0.30892112  -0.12242945   0.15065641 
C   -0.16208816  -1.40929518   0.65876321 
H   -1.67037119   1.18680388  -0.91441734 
H   -2.86841248  -0.67051686  -1.96324915 
H   -2.24703970  -3.01717330  -1.44833398 
H    0.57448377  -1.59803833   1.43616351 
H   -0.60507857  -3.45118263   0.36343214 
Pd   1.32281727   0.96127577  -0.09075615 
O    3.26404633   1.34756979  -1.08714641 
O    2.57918323  -0.60789333  -0.38632606 
O    0.34537761   2.75862862   0.27120864 
C   -0.17175916   2.87906830   1.36977520 
O    0.02078411   1.97732306   2.32722354 
H   -0.81543139   1.59874304   2.66499503 
C    3.43906902   0.12242308  -0.95863138 
H    4.34096795  -0.36888139  -1.33823693 
H   -0.82122905   3.76739411   1.59402919 
*
