! EnGrad PBEh-3c
%output 
xyzfile=True 
end 
%scf 
maxiter 250 
end
%output
Print[P_Hirshfeld] = 1
end
% maxcore
4000
*xyz 0 1
C   -1.40688115   0.16319587  -0.64819736 
C   -2.13018115  -0.88750339  -1.20776398 
C   -1.80420828  -2.20081383  -0.90243242 
C   -0.87086352  -2.44795634   0.09621422 
C   -0.31212858  -0.11349436   0.17014633 
C   -0.16051999  -1.40317781   0.66776253 
H   -1.67529613   1.18573443  -0.90030628 
H   -2.86414069  -0.66699924  -1.97372735 
H   -2.21418957  -3.01699260  -1.47522618 
H    0.56879002  -1.59767483   1.44550448 
H   -0.59641936  -3.46021781   0.36607958 
Pd   1.31233659   0.96248599  -0.08832184 
O    3.24134061   1.33460597  -1.09122764 
O    2.56499131  -0.61724150  -0.37832957 
O    0.32730732   2.77127346   0.28075475 
C   -0.16228743   2.88489731   1.36524781 
O    0.00206698   1.99862896   2.33299005 
H   -0.80830399   1.59326022   2.64988491 
C    3.41909737   0.10991883  -0.96244439 
H    4.32145069  -0.38178956  -1.34880004 
H   -0.80286976   3.75636621   1.59397780 
*
