! EnGrad PBEh-3c
%output 
xyzfile=True 
end 
%scf 
maxiter 250 
end
%output
Print[P_Hirshfeld] = 1
end
% maxcore
4000
*xyz 0 1
C   -1.40700271   0.16593069  -0.63636822 
C   -2.11977252  -0.88305969  -1.21260734 
C   -1.78465505  -2.19808204  -0.91202694 
C   -0.85874815  -2.44683245   0.09760439 
C   -0.31658460  -0.10678866   0.18641228 
C   -0.16170518  -1.39782268   0.67682373 
H   -1.68116806   1.18358378  -0.88929778 
H   -2.85776870  -0.66610753  -1.98162300 
H   -2.19070204  -3.01829798  -1.49600221 
H    0.56174395  -1.59805765   1.45361425 
H   -0.58879075  -3.46460357   0.36386655 
Pd   1.29506968   0.96295733  -0.08391851 
O    3.22822883   1.32516542  -1.09779548 
O    2.55496406  -0.62286805  -0.37047004 
O    0.33061707   2.77099953   0.27867553 
C   -0.18334205   2.89133616   1.38437208 
O    0.00490921   2.02059421   2.32797344 
H   -0.80680972   1.58407328   2.63127819 
C    3.40567535   0.10021686  -0.96493141 
H    4.30704497  -0.39158424  -1.35805300 
H   -0.78341258   3.75204928   1.59208732 
*
