! EnGrad PBEh-3c
%output 
xyzfile=True 
end 
%scf 
maxiter 250 
end
%output
Print[P_Hirshfeld] = 1
end
% maxcore
4000
*xyz 0 1
C   -1.44858412   0.14016849  -0.70874702 
C   -2.19044421  -0.88480395  -1.20870832 
C   -1.91650052  -2.18968933  -0.82982233 
C   -0.90260289  -2.46313874   0.08903489 
C   -0.34648783  -0.07369452   0.19616526 
C   -0.18300956  -1.44376881   0.63262281 
H   -1.66032092   1.15588351  -1.08942848 
H   -2.97360026  -0.68811700  -1.92113982 
H   -2.50672618  -2.99512603  -1.22741880 
H    0.62467234  -1.67965541   1.34389081 
H   -0.68548371  -3.48113534   0.35654640 
Pd   1.39201728   1.02616622  -0.15007911 
O    3.43770792   1.42622362  -1.01955109 
O    2.67854368  -0.54171487  -0.45545047 
O    0.34789607   2.78027216   0.17546493 
C   -0.12481257   2.87101397   1.31046864 
O    0.12397161   1.99317097   2.33080382 
H   -0.96699921   1.48791139   2.84487186 
C    3.59819723   0.18594355  -0.94045355 
H    4.52394755  -0.28998773  -1.28204220 
H   -0.82385215   3.66331439   1.55269284 
*
