! EnGrad PBEh-3c
%output 
xyzfile=True 
end 
%scf 
maxiter 250 
end
%output
Print[P_Hirshfeld] = 1
end
% maxcore
4000
*xyz 0 1
C   -1.41505625   0.15759408  -0.66242030 
C   -2.15396462  -0.89570951  -1.19725093 
C   -1.84192378  -2.20112888  -0.88144619 
C   -0.89896226  -2.44767179   0.09790027 
C   -0.30245446  -0.11735332   0.14140685 
C   -0.16567386  -1.40920688   0.65254567 
H   -1.66740795   1.18165539  -0.93728587 
H   -2.87994485  -0.67620477  -1.95553597 
H   -2.29261802  -3.01819217  -1.41357932 
H    0.57828030  -1.60531984   1.42172091 
H   -0.61643757  -3.44962067   0.35742581 
Pd   1.31756769   0.95883703  -0.09263091 
O    3.29913037   1.36180882  -1.08242840 
O    2.59739697  -0.59412360  -0.39534194 
O    0.35612271   2.75299671   0.28142319 
C   -0.18088154   2.86329738   1.35943585 
O    0.00682117   1.95511696   2.33200895 
H   -0.79023280   1.61096916   2.66517721 
C    3.46549456   0.13794055  -0.95445495 
H    4.37190402  -0.35438536  -1.32874086 
H   -0.82637951   3.76660643   1.58776046 
*
