! EnGrad PBEh-3c
%output 
xyzfile=True 
end 
%scf 
maxiter 250 
end
%output
Print[P_Hirshfeld] = 1
end
% maxcore
4000
*xyz 0 1
C   -1.43460328   0.15434542  -0.71347927 
C   -2.18947601  -0.88420289  -1.20651231 
C   -1.92299073  -2.18722527  -0.82111388 
C   -0.90222815  -2.46022288   0.08199786 
C   -0.38796204  -0.11391926   0.19197606 
C   -0.17036772  -1.43684892   0.63471656 
H   -1.65994691   1.15068730  -1.10286364 
H   -2.98011143  -0.68713621  -1.91395154 
H   -2.52187186  -2.99358366  -1.21431726 
H    0.62875841  -1.68709630   1.33440434 
H   -0.69292501  -3.47968889   0.36115807 
Pd   1.42810379   1.05062422  -0.16584985 
O    3.43895605   1.42685975  -1.00880652 
O    2.68732104  -0.54341499  -0.46410268 
O    0.34155312   2.77230678   0.17675716 
C   -0.11606319   2.86972855   1.31044727 
O    0.17356428   2.02468739   2.29494272 
H   -1.02443855   1.46100169   2.88247267 
C    3.60212447   0.19072541  -0.93665637 
H    4.53055524  -0.28548676  -1.27633460 
H   -0.82920313   3.65746672   1.55498036 
*
