! EnGrad PBEh-3c
%output 
xyzfile=True 
end 
%scf 
maxiter 250 
end
%output
Print[P_Hirshfeld] = 1
end
% maxcore
4000
*xyz 0 1
C   -1.43969533   0.15153129  -0.67537297 
C   -2.18790702  -0.89844276  -1.21083962 
C   -1.89374152  -2.19631760  -0.84917524 
C   -0.91055568  -2.46310597   0.09030434 
C   -0.31482960  -0.05280054   0.19475108 
C   -0.18372485  -1.41156919   0.64480556 
H   -1.67013170   1.15531338  -1.05185460 
H   -2.95565507  -0.68990362  -1.94253359 
H   -2.46414226  -3.00296206  -1.26848052 
H    0.60181350  -1.66454456   1.36480536 
H   -0.66332567  -3.48581869   0.34584662 
Pd   1.33551238   0.98719235  -0.12369481 
O    3.42157752   1.41013502  -1.04690177 
O    2.66331780  -0.54175238  -0.43308757 
O    0.35475994   2.78933623   0.20866681 
C   -0.13693898   2.84760877   1.32395100 
O   -0.00696501   1.94714245   2.37391729 
H   -0.82040961   1.55798063   2.74718702 
C    3.57231731   0.18224614  -0.94539593 
H    4.50176038  -0.30679767  -1.29839460 
H   -0.80947194   3.68297500   1.55062718 
*
