! EnGrad PBEh-3c
%output 
xyzfile=True 
end 
%scf 
maxiter 250 
end
%output
Print[P_Hirshfeld] = 1
end
% maxcore
4000
*xyz 0 1
C   -1.42604522   0.16292396  -0.65873755 
C   -2.18179227  -0.89948503  -1.20572574 
C   -1.88495049  -2.20147536  -0.85757894 
C   -0.91223500  -2.45522639   0.09339413 
C   -0.31605396  -0.06799959   0.18371081 
C   -0.17743437  -1.38997008   0.64981799 
H   -1.67363801   1.15275128  -1.03320316 
H   -2.94764751  -0.69041165  -1.95211457 
H   -2.44420388  -3.00945833  -1.29049206 
H    0.58962388  -1.65647449   1.37197603 
H   -0.65360960  -3.48702331   0.34228274 
Pd   1.31656560   0.97470593  -0.11439779 
O    3.41090646   1.40331541  -1.05819183 
O    2.65597154  -0.54553854  -0.42369353 
O    0.35817803   2.78407328   0.24062654 
C   -0.15605777   2.82878090   1.34298482 
O   -0.05368411   1.94161718   2.36758394 
H   -0.75888226   1.59273774   2.70132442 
C    3.55791185   0.17983838  -0.94636941 
H    4.48817823  -0.31441551  -1.30509934 
H   -0.80039605   3.69272083   1.55053421 
*
