! EnGrad PBEh-3c
%output 
xyzfile=True 
end 
%scf 
maxiter 250 
end
%output
Print[P_Hirshfeld] = 1
end
% maxcore
4000
*xyz 0 1
C   -1.41302387   0.16283352  -0.66249944 
C   -2.15555525  -0.86930426  -1.17946860 
C   -1.86657842  -2.19804320  -0.86253735 
C   -0.89615000  -2.42473104   0.11671408 
C   -0.33464969  -0.14455833   0.12795850 
C   -0.16534368  -1.39969846   0.64662492 
H   -1.66711269   1.15702255  -0.98423707 
H   -2.91153081  -0.68801318  -1.94999132 
H   -2.38965930  -3.03513123  -1.35695294 
H    0.57334324  -1.62578913   1.38426379 
H   -0.63893528  -3.45668781   0.34449005 
Pd   1.31645675   0.97568198  -0.10708163 
O    3.36313407   1.39044434  -1.07190909 
O    2.63374615  -0.57388406  -0.41062067 
O    0.36892014   2.71928987   0.35882242 
C   -0.24601672   2.85092745   1.36276792 
O    0.10549991   2.01108243   2.22765101 
H   -0.85471423   1.58205033   2.70642650 
C    3.51600366   0.16284880  -0.94591152 
H    4.43116035  -0.32885701  -1.31268204 
H   -0.79255600   3.72066026   1.56537188 
*
