! EnGrad PBEh-3c
%output 
xyzfile=True 
end 
%scf 
maxiter 250 
end
%output
Print[P_Hirshfeld] = 1
end
% maxcore
4000
*xyz 0 1
C   -1.41676195   0.16302902  -0.66098963 
C   -2.16514372  -0.88226275  -1.18873774 
C   -1.86880278  -2.19864758  -0.86276766 
C   -0.90362639  -2.43741874   0.10918134 
C   -0.31830394  -0.11777371   0.14043685 
C   -0.16803704  -1.39742788   0.64794410 
H   -1.66767685   1.15835238  -0.99104697 
H   -2.91646654  -0.68782025  -1.95033178 
H   -2.39445416  -3.02764273  -1.34583996 
H    0.57769935  -1.63026478   1.38462170 
H   -0.64045111  -3.46232082   0.34458059 
Pd   1.30994730   0.96868182  -0.10533568 
O    3.37040976   1.39126013  -1.07006441 
O    2.63535432  -0.56820773  -0.41221682 
O    0.37024741   2.73921985   0.31633922 
C   -0.22359919   2.84253760   1.36139732 
O    0.05059574   1.98157859   2.28067526 
H   -0.81480406   1.59299508   2.69463700 
C    3.52193319   0.16559479  -0.94690215 
H    4.44014890  -0.32728741  -1.31229351 
H   -0.79974736   3.72314450   1.56414767 
*
