! EnGrad PBEh-3c
%output 
xyzfile=True 
end 
%scf 
maxiter 250 
end
%output
Print[P_Hirshfeld] = 1
end
% maxcore
4000
*xyz 0 1
C   -1.46404169   0.18010022  -0.64955952 
C   -2.13803595  -0.88591154  -1.23584488 
C   -1.83853255  -2.18724112  -0.87912517 
C   -0.85231051  -2.45030583   0.05502958 
C   -0.52930534  -0.13940706   0.31275937 
C   -0.20179487  -1.41551435   0.71242766 
H   -1.74618214   1.15886342  -1.01380786 
H   -2.90670855  -0.69781555  -1.97214950 
H   -2.38985912  -3.00554420  -1.33055964 
H    0.56115852  -1.67599689   1.43254889 
H   -0.62084879  -3.47233953   0.31650541 
Pd   1.45554891   1.09153683  -0.15111221 
O    3.36697352   1.37680175  -1.10377180 
O    2.67513147  -0.54669619  -0.38018466 
O    0.35202585   2.79905989   0.16648306 
C   -0.06209057   2.91101574   1.31146138 
O    0.27526751   2.09509618   2.24962216 
H   -1.14386183   1.37018959   2.88513891 
C    3.54326102   0.15011168  -0.96875648 
H    4.45533844  -0.34601711  -1.32637822 
H   -0.79112688   3.69000404   1.56928643 
*
