! EnGrad PBEh-3c
%output 
xyzfile=True 
end 
%scf 
maxiter 250 
end
%output
Print[P_Hirshfeld] = 1
end
% maxcore
4000
*xyz 0 1
C   -1.47101493   0.17338998  -0.57227527 
C   -2.10380200  -0.88891176  -1.21733933 
C   -1.72612933  -2.19205445  -0.95494048 
C   -0.84623358  -2.43688826   0.08409561 
C   -0.37701841  -0.08779016   0.26199968 
C   -0.21827733  -1.38824466   0.73938563 
H   -1.77622218   1.18846632  -0.81001797 
H   -2.77520926  -0.67949668  -2.02807590 
H   -2.10689271  -3.01387118  -1.55480386 
H    0.47960434  -1.58552837   1.54350490 
H   -0.51310074  -3.43443966   0.29174404 
Pd   1.25198896   0.94816652  -0.04248717 
O    3.21054905   1.30377119  -1.20064500 
O    2.58046235  -0.59305979  -0.29041861 
O    0.36584621   2.75132795   0.29017911 
C   -0.17745750   2.90154446   1.34200088 
O   -0.00367725   1.98454153   2.37034592 
H   -0.72881305   1.53111911   2.51173652 
C    3.39110723   0.09708983  -0.97764705 
H    4.27032335  -0.42638556  -1.38092699 
H   -0.74489104   3.82417179   1.57930889 
*
