! EnGrad PBEh-3c
%output 
xyzfile=True 
end 
%scf 
maxiter 250 
end
%output
Print[P_Hirshfeld] = 1
end
% maxcore
4000
*xyz 0 1
C   -1.46053381   0.17315246  -0.57610746 
C   -2.08865252  -0.88700293  -1.21791753 
C   -1.70669301  -2.19086787  -0.96463497 
C   -0.83308323  -2.43661115   0.08017710 
C   -0.38019353  -0.10114741   0.26561596 
C   -0.20906543  -1.39524125   0.74274677 
H   -1.77374605   1.19812438  -0.78216080 
H   -2.76054113  -0.66662739  -2.02845033 
H   -2.03533497  -2.99821393  -1.59542400 
H    0.48253625  -1.57596644   1.56234234 
H   -0.50013421  -3.43337022   0.30560535 
Pd   1.27065499   0.94880782  -0.05058072 
O    3.15150773   1.28374974  -1.18968693 
O    2.55219230  -0.61968376  -0.28545830 
O    0.33462474   2.75074574   0.27752710 
C   -0.15574492   2.91405777   1.37242982 
O    0.02106604   2.05394854   2.39608806 
H   -0.75405360   1.47287016   2.44810092 
C    3.34995950   0.07337015  -0.98068703 
H    4.22469592  -0.44235036  -1.38761908 
H   -0.75047976   3.84684034   1.58626211 
*
