! EnGrad PBEh-3c
%output 
xyzfile=True 
end 
%scf 
maxiter 250 
end
%output
Print[P_Hirshfeld] = 1
end
% maxcore
4000
*xyz 0 1
C   -1.44961176   0.17659846  -0.55943840 
C   -2.06954682  -0.87547775  -1.23155331 
C   -1.67403796  -2.18392393  -0.97329201 
C   -0.80721014  -2.44066701   0.08639431 
C   -0.38407410  -0.07645504   0.30834148 
C   -0.20209911  -1.38398608   0.75259865 
H   -1.76281817   1.18912540  -0.78270722 
H   -2.77162567  -0.65941706  -2.03594214 
H   -2.00145732  -2.99285212  -1.62096397 
H    0.48805467  -1.58628992   1.55797936 
H   -0.49972091  -3.45807344   0.31595743 
Pd   1.24247041   0.96086961  -0.04396876 
O    3.12629416   1.26544519  -1.17264948 
O    2.51712260  -0.63628891  -0.29082770 
O    0.30384528   2.75239320   0.28492384 
C   -0.15476018   2.94518140   1.38345469 
O   -0.01716580   2.11648666   2.39337714 
H   -0.72805654   1.41795589   2.40088084 
C    3.32606768   0.05232949  -0.97758239 
H    4.20717626  -0.45391240  -1.40479584 
H   -0.70775103   3.83061829   1.58146279 
*
