! EnGrad PBEh-3c
%output 
xyzfile=True 
end 
%scf 
maxiter 250 
end
%output
Print[P_Hirshfeld] = 1
end
% maxcore
4000
*xyz 0 1
C   -1.45289702   0.17683114  -0.56222050 
C   -2.07391742  -0.87745056  -1.22720962 
C   -1.68060730  -2.18568694  -0.97231012 
C   -0.81217119  -2.43889213   0.08485649 
C   -0.38502545  -0.08505598   0.29803809 
C   -0.20491260  -1.38679304   0.75255161 
H   -1.77058025   1.19280038  -0.77325654 
H   -2.76360688  -0.65902884  -2.03734284 
H   -1.99784451  -2.99245584  -1.62220246 
H    0.48148088  -1.58003688   1.56568339 
H   -0.49360456  -3.45002571   0.31272767 
Pd   1.25492708   0.95511976  -0.04755952 
O    3.12215176   1.26773661  -1.17988024 
O    2.52562405  -0.63359954  -0.28498052 
O    0.30386598   2.75455135   0.29456986 
C   -0.14546853   2.93077878   1.38567228 
O    0.00334033   2.12293853   2.38629840 
H   -0.74437728   1.41868458   2.39799122 
C    3.32693165   0.05592874  -0.97957822 
H    4.20476529  -0.45413765  -1.40047271 
H   -0.71751541   3.83015220   1.58171678 
*
