! EnGrad PBEh-3c
%output 
xyzfile=True 
end 
%scf 
maxiter 250 
end
%output
Print[P_Hirshfeld] = 1
end
% maxcore
4000
*xyz 0 1
C   -1.48958780   0.15813758  -0.63498996 
C   -2.14241716  -0.89232921  -1.23987203 
C   -1.82179921  -2.19359112  -0.89848408 
C   -0.85899459  -2.45977803   0.06792800 
C   -0.44242427  -0.05894159   0.31967942 
C   -0.22191918  -1.42005428   0.70862594 
H   -1.74571016   1.16751972  -0.97790376 
H   -2.89016596  -0.69669191  -1.98986167 
H   -2.35051495  -3.00550720  -1.36013582 
H    0.54750435  -1.65722907   1.45207283 
H   -0.60091386  -3.47624859   0.30692605 
Pd   1.37259640   1.03872499  -0.10600428 
O    3.36026792   1.36923909  -1.13005100 
O    2.65160873  -0.54124453  -0.36399333 
O    0.36267562   2.81058298   0.16377553 
C   -0.07686090   2.89151852   1.32698870 
O    0.17367157   2.04484210   2.29761783 
H   -1.02369794   1.42372312   2.80396333 
C    3.53160571   0.14688068  -0.96743385 
H    4.43806104  -0.35766891  -1.34128539 
H   -0.77658306   3.70580470   1.56150665 
*
