! EnGrad PBEh-3c
%output 
xyzfile=True 
end 
%scf 
maxiter 250 
end
%output
Print[P_Hirshfeld] = 1
end
% maxcore
4000
*xyz 0 1
C   -1.48089341   0.17319555  -0.57628203 
C   -2.12404372  -0.89457694  -1.23308554 
C   -1.77293435  -2.19945513  -0.93271689 
C   -0.85592644  -2.44547606   0.07664325 
C   -0.41819700  -0.05124269   0.31642084 
C   -0.22796500  -1.37401998   0.73192900 
H   -1.77049503   1.16751570  -0.90199901 
H   -2.84635353  -0.69365279  -2.02838245 
H   -2.25679338  -3.01595716  -1.44306986 
H    0.50126286  -1.62967211   1.49288342 
H   -0.55326034  -3.47620986   0.28775824 
Pd   1.28817814   0.98828794  -0.05841009 
O    3.31311069   1.34154456  -1.18055593 
O    2.62337621  -0.54469738  -0.32341593 
O    0.37144866   2.80277381   0.22634063 
C   -0.11507661   2.87455862   1.33234118 
O   -0.00580742   1.96872486   2.34728174 
H   -0.80018732   1.52444888   2.64239287 
C    3.48069132   0.13162544  -0.96908815 
H    4.37955783  -0.39089514  -1.36771375 
H   -0.73810966   3.73499072   1.55631958 
*
