! EnGrad PBEh-3c
%output 
xyzfile=True 
end 
%scf 
maxiter 250 
end
%output
Print[P_Hirshfeld] = 1
end
% maxcore
4000
*xyz 0 1
C   -1.46967031   0.17877558  -0.56327630 
C   -2.10101608  -0.87028037  -1.20787627 
C   -1.74157062  -2.19405206  -0.94869803 
C   -0.83853840  -2.41922301   0.09621249 
C   -0.41455145  -0.10112645   0.27223788 
C   -0.22233807  -1.37304197   0.74135297 
H   -1.78187290   1.17148311  -0.84264494 
H   -2.80083297  -0.68902755  -2.03621258 
H   -2.17480236  -3.03009244  -1.51965756 
H    0.47395787  -1.60252362   1.51983524 
H   -0.52534050  -3.44945704   0.28223852 
Pd   1.25689943   0.96397037  -0.04988942 
O    3.25636900   1.32255123  -1.20162136 
O    2.60272672  -0.57343487  -0.29504672 
O    0.38335376   2.75208388   0.32416907 
C   -0.20543479   2.83704265   1.39187263 
O    0.07331121   2.07680655   2.24240060 
H   -0.81423011   1.50853566   2.56904437 
C    3.42879916   0.11361605  -0.97682857 
H    4.31263638  -0.41312538  -1.37517362 
H   -0.71197157   3.77481909   1.56699128 
*
