38
autodE path point 0. E = -3847.791013807228 charge = -1 mult = 1 
C    -2.83860  -0.33444   0.83366
C    -2.18519   0.87771   1.05464
C    -4.00482  -0.64320   1.51734
C    -4.54291   0.25328   2.43114
C    -3.90471   1.46388   2.65415
C    -2.73558   1.76832   1.97091
H    -2.43278  -1.03772   0.11269
H    -4.49697  -1.58872   1.32812
H    -2.24170   2.71717   2.14915
H    -5.45513   0.01061   2.96169
H    -4.31820   2.17396   3.35984
C    -0.88340   1.17139   0.36713
C     0.29308   0.55551   1.14002
H    -0.72742   2.25024   0.28467
H    -0.89942   0.78427  -0.65276
C     1.60731   0.63149   0.40868
H     0.04409  -0.48449   1.37125
H     0.37460   1.05957   2.10853
C     1.90897  -0.21973  -0.66512
C     3.14512  -0.08200  -1.29567
C     4.06557   0.87244  -0.88155
C     2.53604   1.59262   0.80614
C     3.76217   1.71850   0.17337
H     3.38622  -0.71899  -2.13789
H     5.01872   0.95534  -1.39088
H     2.29155   2.25252   1.63295
H     4.47129   2.46866   0.50185
Pd    0.60687  -1.56558  -1.35155
Br   -1.19186  -3.31182  -1.91934
P     0.98771  -2.88746   0.37932
H    -0.06776  -3.22452   1.24259
C     0.98774  -0.67769  -3.99442
O     1.86654  -1.52303  -4.09651
O     0.29493  -0.36277  -2.98149
O     0.66216   0.07339  -5.08519
H     1.94478  -2.55293   1.36117
H     1.44544  -4.18323   0.09421
H     1.22558  -0.25254  -5.79281
38
autodE path point 1. E = -3847.709126023964 charge = -1 mult = 1 
C    -2.44930  -0.14610   0.49801
C    -1.93691   0.96793   1.22060
C    -3.77573  -0.48934   0.67756
C    -4.69609   0.37035   1.25973
C    -4.25191   1.57801   1.78890
C    -2.89223   1.80720   1.82574
H    -1.99092  -0.72970  -0.27002
H    -4.10156  -1.45406   0.30490
H    -2.54729   2.71756   2.33512
H    -5.75705   0.14270   1.21523
H    -4.96047   2.31075   2.17710
C    -0.49413   1.43409   1.41782
C     0.63130   0.40693   1.77436
H    -0.50288   2.19216   2.23970
H    -0.14432   2.00930   0.53716
C     1.74822   0.50374   0.77269
H     0.23795  -0.60574   1.82869
H     1.03030   0.62832   2.77078
C     1.68367  -0.14588  -0.47928
C     2.69570   0.14400  -1.39555
C     3.68142   1.09347  -1.14179
C     2.79350   1.39530   1.04659
C     3.75400   1.70431   0.09631
H     2.71905  -0.37005  -2.34593
H     4.43197   1.30951  -1.89189
H     2.88972   1.83509   2.03633
H     4.53504   2.42574   0.31348
Pd    0.27911  -1.56695  -0.93133
Br   -1.46717  -3.56593  -0.70364
P     1.43130  -3.00592   0.19147
H     0.95340  -3.61151   1.36756
C     0.38374  -1.25296  -3.86943
O     1.50865  -1.64418  -4.23151
O    -0.41169  -1.73972  -3.00889
O    -0.07954  -0.08477  -4.43789
H     2.76958  -2.73245   0.56470
H     1.64502  -4.13988  -0.62267
H     0.65350   0.29090  -4.93587
38
autodE path point 2. E = -3847.632616805262 charge = -1 mult = 1 
C    -2.32107  -0.21451   0.54140
C    -1.89832   0.96258   1.27846
C    -3.67942  -0.49248   0.70643
C    -4.62200   0.37806   1.24757
C    -4.22168   1.59564   1.75706
C    -2.86213   1.81722   1.87408
H    -1.94296  -1.13435  -0.53910
H    -4.00917  -1.45313   0.35332
H    -2.54832   2.72396   2.40961
H    -5.67020   0.13216   1.19442
H    -4.94254   2.32746   2.10035
C    -0.47464   1.48078   1.46184
C     0.62866   0.43883   1.79756
H    -0.49076   2.22459   2.27142
H    -0.16076   2.05548   0.57715
C     1.73901   0.52714   0.79800
H     0.20647  -0.56757   1.84260
H     1.01828   0.65736   2.79382
C     1.65353  -0.11851  -0.44527
C     2.65606   0.13425  -1.38126
C     3.65679   1.06902  -1.13193
C     2.78834   1.40572   1.05775
C     3.74598   1.68683   0.10043
H     2.66734  -0.38218  -2.33130
H     4.38989   1.29580  -1.89455
H     2.86384   1.85992   2.03817
H     4.52447   2.40879   0.30537
Pd    0.16215  -1.43510  -0.82141
Br   -1.64000  -3.41795  -0.80360
P     1.42639  -2.97196   0.12197
H     0.93650  -3.56365   1.29888
C     0.37954  -1.28798  -3.87808
O     1.49982  -1.66106  -4.21456
O    -0.42143  -1.80701  -3.04045
O    -0.07142  -0.09222  -4.38780
H     2.76404  -2.73266   0.51372
H     1.60805  -4.12539  -0.66797
H     0.64852   0.26800  -4.90700
38
autodE path point 3. E = -3847.570646264687 charge = -1 mult = 1 
C    -2.26573  -0.16884   0.64956
C    -1.90039   1.00524   1.34545
C    -3.63717  -0.47611   0.72901
C    -4.60335   0.38389   1.26131
C    -4.21911   1.60239   1.78344
C    -2.86477   1.84205   1.93774
H    -1.89341  -1.65237  -0.91855
H    -3.97886  -1.44714   0.39488
H    -2.55908   2.76849   2.42132
H    -5.65626   0.14533   1.18320
H    -4.95033   2.32924   2.11442
C    -0.47389   1.49654   1.48587
C     0.62259   0.45668   1.81113
H    -0.45051   2.26321   2.26966
H    -0.19353   2.02627   0.57182
C     1.73103   0.53980   0.80812
H     0.19722  -0.54586   1.84690
H     1.02778   0.65873   2.80592
C     1.64416  -0.10054  -0.43401
C     2.64332   0.13569  -1.37904
C     3.65372   1.06404  -1.12837
C     2.78803   1.41077   1.05818
C     3.74884   1.68305   0.10227
H     2.66505  -0.39203  -2.32336
H     4.38956   1.28330  -1.89043
H     2.86205   1.86923   2.03599
H     4.52346   2.41036   0.30383
Pd    0.12902  -1.35960  -0.77207
Br   -1.75120  -3.28937  -0.87316
P     1.43018  -2.95192   0.10843
H     0.92391  -3.54808   1.28231
C     0.38369  -1.29216  -3.89568
O     1.49376  -1.66940  -4.21486
O    -0.43143  -1.80039  -3.04718
O    -0.06068  -0.09206  -4.38390
H     2.75836  -2.73679   0.51948
H     1.60428  -4.11892  -0.66517
H     0.65531   0.26142  -4.91067
38
autodE path point 4. E = -3847.573923784938 charge = -1 mult = 1 
C    -2.15944  -0.15203   0.68275
C    -1.86390   1.03431   1.37489
C    -3.54813  -0.46164   0.68484
C    -4.55280   0.39268   1.17456
C    -4.20160   1.61423   1.72991
C    -2.85322   1.86619   1.92600
H    -1.92596  -1.96323  -1.34742
H    -3.90845  -1.42106   0.32219
H    -2.55878   2.79759   2.41105
H    -5.61101   0.14128   1.09342
H    -4.94774   2.33587   2.05503
C    -0.44931   1.52079   1.58193
C     0.64096   0.46417   1.87451
H    -0.46107   2.23131   2.41808
H    -0.15013   2.10049   0.69848
C     1.73572   0.56213   0.85603
H     0.22264  -0.54400   1.90579
H     1.07002   0.65459   2.86115
C     1.62998  -0.07253  -0.37918
C     2.59937   0.15189  -1.36059
C     3.61409   1.07962  -1.12725
C     2.79956   1.42716   1.08316
C     3.73610   1.69764   0.10353
H     2.59835  -0.38240  -2.30356
H     4.34106   1.28761  -1.89933
H     2.88939   1.88368   2.05872
H     4.52002   2.41792   0.28916
Pd    0.07027  -1.27500  -0.60370
Br   -1.83132  -3.24863  -0.88546
P     1.44702  -2.95582   0.04696
H     0.97180  -3.55329   1.23516
C     0.30503  -1.34095  -3.84317
O     1.44947  -1.68659  -4.18447
O    -0.50428  -1.87399  -3.08540
O    -0.12525  -0.12029  -4.33419
H     2.77946  -2.74101   0.44132
H     1.60313  -4.12717  -0.72063
H     0.60651   0.25631  -4.82649
38
autodE path point 5. E = -3847.630002725336 charge = -1 mult = 1 
C    -2.06998  -0.15672   0.68866
C    -1.83069   1.06608   1.36166
C    -3.45186  -0.49237   0.69249
C    -4.48716   0.33547   1.17340
C    -4.18585   1.59364   1.68764
C    -2.84809   1.93567   1.83172
H    -1.46179  -1.84264  -2.22747
H    -3.77524  -1.42709   0.27866
H    -2.60205   2.86817   2.34901
H    -5.54169   0.03579   1.10572
H    -4.96490   2.27416   2.04364
C    -0.42722   1.57260   1.66122
C     0.67764   0.51457   1.92733
H    -0.52167   2.20076   2.57126
H    -0.07769   2.24140   0.86138
C     1.72578   0.60931   0.87236
H     0.24250  -0.48448   1.96425
H     1.12033   0.71385   2.90411
C     1.53990  -0.04864  -0.34483
C     2.53534   0.15294  -1.31424
C     3.58795   1.05244  -1.11702
C     2.81553   1.45074   1.08932
C     3.74879   1.68985   0.09848
H     2.53621  -0.38015  -2.25300
H     4.32145   1.22641  -1.89689
H     2.95943   1.89323   2.06933
H     4.55851   2.39073   0.26505
Pd   -0.06656  -1.32794  -0.38748
Br   -1.82933  -3.32296  -0.74041
P     1.40712  -2.94948  -0.03401
H     1.01072  -3.56331   1.17821
C     0.14923  -1.34927  -3.78756
O     1.22789  -1.79312  -4.05708
O    -0.83200  -1.97593  -3.13331
O    -0.15543  -0.09375  -4.23466
H     2.75214  -2.73274   0.34146
H     1.57792  -4.12380  -0.77945
H     0.62112   0.24550  -4.71471
38
autodE path point 6. E = -3847.763004298813 charge = -1 mult = 1 
C    -1.50218   0.06203   0.51663
C    -1.46090   0.96305   1.59123
C    -2.57958   0.19108  -0.37453
C    -3.55016   1.17252  -0.24857
C    -3.48161   2.07311   0.80323
C    -2.44642   1.94972   1.71012
H    -1.27869  -3.25956  -2.49150
H    -2.67772  -0.51051  -1.19202
H    -2.38875   2.64307   2.54470
H    -4.35687   1.23081  -0.97070
H    -4.22147   2.85650   0.91841
C    -0.45196   0.94982   2.72386
C     0.87993   0.23290   2.53004
H    -0.94037   0.52556   3.60910
H    -0.23069   1.99052   2.98350
C     1.57703   0.66499   1.27236
H     0.72999  -0.84875   2.52800
H     1.50429   0.45260   3.40272
C     1.19078   0.10492   0.04780
C     1.82740   0.56728  -1.10567
C     2.80845   1.55203  -1.05568
C     2.56100   1.64746   1.31876
C     3.18177   2.09749   0.16180
H     1.58354   0.14125  -2.07378
H     3.28618   1.88196  -1.97111
H     2.84858   2.06570   2.27886
H     3.95012   2.85950   0.21348
Pd   -0.14882  -1.37181   0.01618
Br   -1.78841  -3.38354  -0.06783
P     1.52142  -2.92571  -0.53265
H     1.96079  -3.73449   0.53352
C    -0.26943  -2.02173  -3.54567
O     0.73410  -1.78149  -4.15800
O    -0.67900  -3.24119  -3.26690
O    -1.12321  -1.09676  -3.09955
H     2.79847  -2.51114  -0.96174
H     1.33740  -3.96076  -1.46443
H    -0.70505  -0.22844  -3.12397
