! EnGrad PBEh-3c
%output 
xyzfile=True 
end 
%scf 
maxiter 250 
end
%output
Print[P_Hirshfeld] = 1
end
% maxcore
4000
*xyz -1 1
C   -2.32567924  -0.09082855   0.72054614 
C   -1.89247043   0.96603020   1.54277308 
C   -3.66207410  -0.46406488   0.84412373 
C   -4.63694285   0.48051672   1.13245789 
C   -4.23222442   1.59636451   1.84557495 
C   -2.88078408   1.84484103   2.00155730 
H   -2.62626688  -1.38640270  -1.67423356 
H   -3.98928178  -1.48763837   0.71028346 
H   -2.64017048   2.88664741   2.20763296 
H   -5.69273499   0.25273349   1.01751787 
H   -4.99392310   2.28687093   2.18890307 
C   -0.46939429   1.46356946   1.57456019 
C    0.66027256   0.49870699   1.82194851 
H   -0.37678126   2.24941982   2.33958531 
H   -0.37731127   2.04303983   0.64704159 
C    1.75301759   0.64785229   0.79084259 
H    0.30407076  -0.53292094   1.85081817 
H    1.09764253   0.61622076   2.82329858 
C    1.66134738   0.01802431  -0.46242430 
C    2.72518830   0.19333352  -1.34922718 
C    3.73947179   1.11715976  -1.11651112 
C    2.92215305   1.34361323   1.11070420 
C    3.78941682   1.76187930   0.10894316 
H    2.80649085  -0.40347059  -2.24897328 
H    4.47963441   1.33698138  -1.87721950 
H    3.04238645   1.74848182   2.11101698 
H    4.46807452   2.59184295   0.26433027 
Pd   0.25265750  -1.31020825  -0.79681051 
Br  -1.49438393  -3.75610336  -0.83964037 
P    1.38399535  -3.00062963   0.08619190 
H    0.91725233  -3.55456031   1.28745602 
C    0.41630903  -1.31586299  -3.87766050 
O    1.50487869  -1.73816559  -4.19121380 
O   -0.46108259  -2.01998410  -3.26867695 
O   -0.12585791  -0.18963590  -4.38090337 
H    2.71553214  -2.80719133   0.50774163 
H    1.65643843  -4.17736316  -0.63342893 
H    0.58112644   0.29090176  -4.81890994 
*
