! EnGrad PBEh-3c
%output 
xyzfile=True 
end 
%scf 
maxiter 250 
end
%output
Print[P_Hirshfeld] = 1
end
% maxcore
4000
*xyz -1 1
C   -2.36224192  -0.20361756   0.85682512 
C   -1.94330958   1.06590576   1.34530138 
C   -3.70983514  -0.52800137   0.83825567 
C   -4.66733669   0.36359302   1.36161973 
C   -4.26707511   1.63022048   1.79475645 
C   -2.90230511   1.92056455   1.87572001 
H   -2.20536963  -1.38674170  -1.23512048 
H   -3.99785356  -1.52351984   0.47117268 
H   -2.54425011   2.79081143   2.46148117 
H   -5.70941762   0.18907241   1.13100274 
H   -4.97349789   2.36875194   2.17347503 
C   -0.47156908   1.50741536   1.47686695 
C    0.64459326   0.45339262   1.79928057 
H   -0.45132790   2.30158086   2.26375584 
H   -0.22449086   1.97385061   0.51412593 
C    1.79482510   0.52511739   0.80361555 
H    0.23154979  -0.56647445   1.78777958 
H    1.04676825   0.68368944   2.80036772 
C    1.71465300  -0.15939850  -0.44173619 
C    2.72290995   0.14018221  -1.37740888 
C    3.70598555   1.10646298  -1.12522078 
C    2.80485909   1.48323834   1.05889250 
C    3.77550229   1.76127702   0.11034064 
H    2.73918837  -0.40762521  -2.32658563 
H    4.45996201   1.32208942  -1.87370150 
H    2.96015831   1.81991064   2.09050405 
H    4.56659324   2.47704364   0.32576990 
Pd   0.05968607  -1.49671461  -0.90207645 
Br  -1.53595854  -3.52692361  -0.84489145 
P    1.41344291  -2.95424967   0.11563377 
H    0.87534407  -3.53781344   1.28041465 
C    0.43491500  -1.29231963  -3.94161150 
O    1.52297122  -1.66428802  -4.22842218 
O   -0.46093036  -1.87921282  -3.05705198 
O   -0.07342536  -0.13885998  -4.41994322 
H    2.75395255  -2.74899122   0.57629089 
H    1.59927384  -4.14489230  -0.63268748 
H    0.66249483   0.27657913  -4.90809853 
*
