! EnGrad PBEh-3c
%output 
xyzfile=True 
end 
%scf 
maxiter 250 
end
%output
Print[P_Hirshfeld] = 1
end
% maxcore
4000
*xyz -1 1
C   -2.34962825  -0.19330501   0.82277183 
C   -1.92039128   1.04988273   1.35711071 
C   -3.70253046  -0.54089157   0.86260258 
C   -4.65532647   0.37116164   1.32824687 
C   -4.25917267   1.62597770   1.80603246 
C   -2.89809618   1.93571118   1.86683488 
H   -2.11986789  -1.41531926  -1.17348371 
H   -3.99373512  -1.50646780   0.43366998 
H   -2.54624537   2.77230052   2.47316132 
H   -5.71361151   0.17367243   1.15248860 
H   -4.97054724   2.36998995   2.15757836 
C   -0.47236003   1.49385276   1.45963951 
C    0.63309579   0.46234900   1.79813719 
H   -0.46002976   2.29110336   2.25272574 
H   -0.19737268   1.98341235   0.52794814 
C    1.76810841   0.53269197   0.79528577 
H    0.22340730  -0.56242905   1.79448652 
H    1.03844834   0.68094852   2.79670123 
C    1.70041872  -0.16691434  -0.44175737 
C    2.70931679   0.13151182  -1.37039071 
C    3.69654599   1.09423451  -1.12631934 
C    2.80503600   1.45222500   1.05987541 
C    3.76086485   1.76574817   0.10390231 
H    2.72302449  -0.39777604  -2.33117881 
H    4.44876086   1.31867260  -1.87442951 
H    2.93793496   1.83996407   2.07691475 
H    4.57285458   2.45769171   0.32744056 
Pd   0.07600012  -1.49969666  -0.86656006 
Br  -1.56982179  -3.49351466  -0.84613093 
P    1.41414259  -2.94796038   0.11559041 
H    0.88331699  -3.53534809   1.27258808 
C    0.44802272  -1.24855260  -3.89809089 
O    1.51204316  -1.68034875  -4.23825834 
O   -0.46180055  -1.87084189  -3.07601812 
O   -0.08524066  -0.14084365  -4.42218260 
H    2.74805100  -2.74296464   0.56700499 
H    1.59355632  -4.13210228  -0.63486052 
H    0.67006214   0.27121654  -4.91118634 
*
