! EnGrad PBEh-3c
%output 
xyzfile=True 
end 
%scf 
maxiter 250 
end
%output
Print[P_Hirshfeld] = 1
end
% maxcore
4000
*xyz -1 1
C   -2.31155853  -0.15046113   0.72288102 
C   -1.89839556   1.00015477   1.40620889 
C   -3.65418493  -0.52101773   0.85699322 
C   -4.62757638   0.41313376   1.23231005 
C   -4.22660743   1.61209563   1.80932567 
C   -2.87161548   1.88361480   1.90549255 
H   -2.03830311  -1.50939420  -1.15096706 
H   -3.97938237  -1.45596704   0.43350075 
H   -2.57137431   2.77820813   2.42846882 
H   -5.69313554   0.16317365   1.16530374 
H   -4.96629216   2.34354928   2.12890293 
C   -0.47737628   1.48545450   1.48573851 
C    0.62886579   0.46707500   1.80021849 
H   -0.45302201   2.24930641   2.24439047 
H   -0.19215813   2.02371013   0.58203301 
C    1.72049996   0.56768455   0.78661884 
H    0.22469484  -0.53634807   1.82980793 
H    1.03157872   0.66021073   2.79418650 
C    1.65400913  -0.11237697  -0.43909985 
C    2.68058679   0.12811332  -1.35975935 
C    3.67787043   1.08187305  -1.12162178 
C    2.82391003   1.38005557   1.07049267 
C    3.74366573   1.73884649   0.09505580 
H    2.70481972  -0.38016875  -2.31372595 
H    4.42245958   1.30884445  -1.87828008 
H    2.90644246   1.85394914   2.04699822 
H    4.54393750   2.44531393   0.30995117 
Pd   0.14893670  -1.42461155  -0.77495238 
Br  -1.64747919  -3.46520407  -0.85566496 
P    1.42087609  -2.95848897   0.10818860 
H    0.90986395  -3.53799307   1.26644965 
C    0.38094675  -1.30240683  -3.82309893 
O    1.51911236  -1.70185866  -4.23706967 
O   -0.42984214  -1.83476493  -3.13903651 
O   -0.09365205  -0.10186453  -4.41051961 
H    2.72706970  -2.74504124   0.52651336 
H    1.59983878  -4.11624355  -0.64289664 
H    0.64846354   0.26443350  -4.89321557 
*
