! EnGrad PBEh-3c
%output 
xyzfile=True 
end 
%scf 
maxiter 250 
end
%output
Print[P_Hirshfeld] = 1
end
% maxcore
4000
*xyz -1 1
C   -2.31344430  -0.15770450   0.72770073 
C   -1.90479466   1.00674009   1.39599243 
C   -3.65576600  -0.51352267   0.84452354 
C   -4.62983076   0.40703562   1.24687076 
C   -4.22990353   1.61251667   1.80353136 
C   -2.87273177   1.87687201   1.90731968 
H   -2.03943060  -1.50841411  -1.13980063 
H   -3.98119464  -1.46131394   0.43479751 
H   -2.56813197   2.78130010   2.43096971 
H   -5.68962033   0.16464521   1.16454342 
H   -4.96526294   2.34361609   2.13106332 
C   -0.47624967   1.48763387   1.48630295 
C    0.62942429   0.46513273   1.80070748 
H   -0.45224864   2.25467496   2.24709646 
H   -0.19518038   2.02058545   0.57478873 
C    1.72914322   0.56220034   0.78967600 
H    0.22304100  -0.53923141   1.82804340 
H    1.03211658   0.66174988   2.79505937 
C    1.65732101  -0.11371587  -0.43950797 
C    2.68153501   0.13003486  -1.36200000 
C    3.67769949   1.08277367  -1.12267574 
C    2.81951654   1.39152207   1.06844460 
C    3.74678064   1.73386854   0.09785654 
H    2.70514242  -0.38323021  -2.31512989 
H    4.42251064   1.30777408  -1.87855146 
H    2.90663290   1.85155432   2.04795989 
H    4.54289975   2.44493321   0.31030086 
Pd   0.14104686  -1.42372163  -0.78407896 
Br  -1.64631139  -3.45892778  -0.85632849 
P    1.42097333  -2.95822382   0.10860706 
H    0.90766197  -3.53898757   1.26979938 
C    0.38230706  -1.29978363  -3.85010491 
O    1.51961701  -1.69649479  -4.23214342 
O   -0.43363217  -1.83595018  -3.11946737 
O   -0.08684245  -0.10484488  -4.40603234 
H    2.73174581  -2.74445119   0.53005418 
H    1.60045054  -4.11913127  -0.64392092 
H    0.64982656   0.26532376  -4.89613231 
*
