! EnGrad PBEh-3c
%output 
xyzfile=True 
end 
%scf 
maxiter 250 
end
%output
Print[P_Hirshfeld] = 1
end
% maxcore
4000
*xyz -1 1
C   -2.30400575  -0.16116912   0.70744179 
C   -1.90315561   1.00618531   1.38817581 
C   -3.65053065  -0.49236357   0.81008925 
C   -4.62353225   0.40381708   1.24898548 
C   -4.22860794   1.61098856   1.79369968 
C   -2.87226070   1.85547716   1.92840635 
H   -2.03157319  -1.53512656  -1.11740345 
H   -3.98028177  -1.45833117   0.44331895 
H   -2.57011306   2.78865014   2.41538040 
H   -5.67694051   0.16642003   1.16144526 
H   -4.96137502   2.33451927   2.12847188 
C   -0.47688424   1.48799728   1.49236970 
C    0.63177987   0.46471374   1.80411313 
H   -0.44657707   2.25703593   2.25874475 
H   -0.20571603   2.02459478   0.57889798 
C    1.73441277   0.56051812   0.79615294 
H    0.22080036  -0.54012562   1.83512412 
H    1.03395441   0.65789383   2.79816728 
C    1.65324430  -0.09822878  -0.44014514 
C    2.67462814   0.13574258  -1.36411039 
C    3.67280240   1.08096223  -1.12457557 
C    2.81569220   1.39636473   1.06724021 
C    3.75130398   1.71681340   0.10207608 
H    2.70165189  -0.38643051  -2.31249651 
H    4.41579211   1.30288067  -1.88068995 
H    2.90163795   1.84834725   2.04511066 
H    4.53043328   2.44371776   0.30495718 
Pd   0.14452782  -1.39679390  -0.77948662 
Br  -1.66430700  -3.43823486  -0.85995173 
P    1.42276965  -2.96109295   0.10705179 
H    0.91160699  -3.54262277   1.27563526 
C    0.37883789  -1.30956562  -3.89054517 
O    1.51166904  -1.68654811  -4.21750767 
O   -0.43531346  -1.83407536  -3.09829085 
O   -0.08002929  -0.10769985  -4.38870705 
H    2.73704574  -2.74538407   0.52515618 
H    1.60491340  -4.12283323  -0.64950849 
H    0.64919087   0.26747049  -4.89699038 
*
