! EnGrad PBEh-3c
%output 
xyzfile=True 
end 
%scf 
maxiter 250 
end
%output
Print[P_Hirshfeld] = 1
end
% maxcore
4000
*xyz -1 1
C   -2.29352027  -0.16471817   0.69223139 
C   -1.90316733   1.00590162   1.37467608 
C   -3.64675327  -0.48644511   0.78734189 
C   -4.61895768   0.39905818   1.25509349 
C   -4.22609499   1.60877681   1.78779787 
C   -2.87052751   1.84916394   1.93292439 
H   -1.98795999  -1.56525398  -1.06398662 
H   -3.97928313  -1.45459720   0.42929166 
H   -2.56689361   2.78429112   2.41883798 
H   -5.66989402   0.16075109   1.16839736 
H   -4.95792321   2.33324098   2.12334296 
C   -0.47609084   1.49057064   1.49153021 
C    0.62928829   0.46206807   1.80534552 
H   -0.44810938   2.25809156   2.26099031 
H   -0.20067697   2.02588112   0.57703177 
C    1.73393981   0.55382524   0.79912276 
H    0.21420994  -0.54122048   1.83853813 
H    1.03175602   0.65837286   2.79988395 
C    1.64951571  -0.09826665  -0.43761988 
C    2.66615627   0.13465608  -1.36904461 
C    3.66661164   1.07787612  -1.12353299 
C    2.80762915   1.40133960   1.06440122 
C    3.75038710   1.70491332   0.10090146 
H    2.69154531  -0.38703299  -2.31468828 
H    4.40800762   1.29759852  -1.88325780 
H    2.88970527   1.85421991   2.04113731 
H    4.52843139   2.43383980   0.30483016 
Pd   0.13968273  -1.38696174  -0.77589669 
Br  -1.68804804  -3.39998443  -0.86362669 
P    1.42504162  -2.95857814   0.10728020 
H    0.91459936  -3.54410632   1.27766365 
C    0.37323156  -1.30621792  -3.89931454 
O    1.50876936  -1.68120987  -4.21510404 
O   -0.43344274  -1.82373477  -3.08039139 
O   -0.06882787  -0.10246376  -4.38716522 
H    2.74274330  -2.74228287   0.52325125 
H    1.60431452  -4.12168569  -0.65432113 
H    0.64760462   0.26441831  -4.89860875 
*
