! EnGrad PBEh-3c
%output 
xyzfile=True 
end 
%scf 
maxiter 250 
end
%output
Print[P_Hirshfeld] = 1
end
% maxcore
4000
*xyz -1 1
C   -2.26914421  -0.16841651   0.65474460 
C   -1.90010173   1.00434307   1.35002001 
C   -3.63878236  -0.47726100   0.73775382 
C   -4.60561852   0.38686047   1.26001606 
C   -4.21992894   1.60386365   1.78303331 
C   -2.86557407   1.84243197   1.93935010 
H   -1.90422624  -1.63895607  -0.94244329 
H   -3.97834688  -1.44702858   0.40041938 
H   -2.56094792   2.77110396   2.42057383 
H   -5.65788803   0.14778110   1.18132004 
H   -4.95120913   2.32956840   2.11466127 
C   -0.47430859   1.49528038   1.48680153 
C    0.62361592   0.45770626   1.80995228 
H   -0.45018073   2.26178698   2.26849874 
H   -0.19397440   2.02713468   0.57400873 
C    1.73097355   0.54230213   0.80684720 
H    0.19995438  -0.54472006   1.84622139 
H    1.02824590   0.65841887   2.80481684 
C    1.64422195  -0.09913483  -0.43472694 
C    2.64633229   0.13542854  -1.37702030 
C    3.65503524   1.06620375  -1.12767172 
C    2.79097570   1.40832820   1.05877963 
C    3.74928012   1.68570151   0.10226007 
H    2.66915334  -0.39070704  -2.32157962 
H    4.39169639   1.28557697  -1.88904864 
H    2.86568524   1.86717708   2.03604601 
H    4.52350055   2.41349437   0.30369649 
Pd   0.13108276  -1.36306812  -0.77041896 
Br  -1.74207210  -3.30766510  -0.87194823 
P    1.42945489  -2.95308778   0.10813795 
H    0.92262703  -3.54749781   1.28157811 
C    0.38466905  -1.29510890  -3.90097839 
O    1.49348343  -1.67022452  -4.21323335 
O   -0.43382401  -1.80508411  -3.05035949 
O   -0.06143032  -0.09360094  -4.38327400 
H    2.75562226  -2.73734187   0.51926275 
H    1.60419621  -4.11927698  -0.66398000 
H    0.65360058   0.26161171  -4.90807698 
*
