! EnGrad PBEh-3c
%output 
xyzfile=True 
end 
%scf 
maxiter 250 
end
%output
Print[P_Hirshfeld] = 1
end
% maxcore
4000
*xyz -1 1
C   -2.25241843  -0.17049980   0.62932523 
C   -1.90151870   1.00871920   1.32760122 
C   -3.63086054  -0.47162709   0.69487367 
C   -4.59450821   0.37228829   1.26638117 
C   -4.21589961   1.59665985   1.78500982 
C   -2.86163939   1.84058177   1.93146980 
H   -1.85118623  -1.70470828  -0.82535447 
H   -3.98087260  -1.44755834   0.37326050 
H   -2.55180436   2.75828656   2.42422837 
H   -5.64991903   0.13575658   1.19052887 
H   -4.94691283   2.32797569   2.11349698 
C   -0.47225299   1.50147169   1.48223147 
C    0.61858371   0.45265278   1.81571400 
H   -0.45177612   2.26877167   2.27418311 
H   -0.19178321   2.02287907   0.56326987 
C    1.73122769   0.53003870   0.81306448 
H    0.18654775  -0.55029223   1.84956448 
H    1.02596298   0.65993394   2.81024525 
C    1.64392405  -0.10599972  -0.43121924 
C    2.63157602   0.13672058  -1.38693973 
C    3.64859241   1.05557808  -1.13109334 
C    2.77654021   1.42031350   1.05585467 
C    3.74712637   1.67271229   0.10231021 
H    2.64906024  -0.39720159  -2.33030103 
H    4.38120335   1.27442574  -1.89579517 
H    2.84788241   1.87725150   2.03578462 
H    4.52332170   2.39811940   0.30433482 
Pd   0.12096314  -1.34607756  -0.77852525 
Br  -1.78680775  -3.21797569  -0.87788952 
P    1.43299336  -2.94734134   0.10958638 
H    0.92891473  -3.55033652   1.28515718 
C    0.37985499  -1.28066475  -3.87498613 
O    1.49481676  -1.66620440  -4.22121988 
O   -0.42208759  -1.78207126  -3.03475374 
O   -0.05774680  -0.08606190  -4.38635042 
H    2.76902726  -2.73462535   0.52030647 
H    1.60462192  -4.11750802  -0.66979371 
H    0.66199107   0.26068840  -4.92077805 
*
