! EnGrad PBEh-3c
%output 
xyzfile=True 
end 
%scf 
maxiter 250 
end
%output
Print[P_Hirshfeld] = 1
end
% maxcore
4000
*xyz -1 1
C   -2.35079209  -0.14728850   0.84031144 
C   -1.89804645   1.00759116   1.39300307 
C   -3.70012840  -0.48183355   0.78433409 
C   -4.64621652   0.40161588   1.29105033 
C   -4.25362240   1.64100713   1.78647534 
C   -2.92671034   1.86749679   2.00073140 
H   -2.49526728  -1.37814184  -1.53750423 
H   -3.98840113  -1.50095414   0.64162067 
H   -2.59373965   2.85326466   2.30574678 
H   -5.69157597   0.23870658   1.04784471 
H   -4.97664531   2.31580125   2.19389168 
C   -0.51133699   1.54531861   1.55381899 
C    0.71013837   0.44026232   1.81026109 
H   -0.39947206   2.27169270   2.30646878 
H   -0.33733098   1.99239811   0.59081848 
C    1.79664275   0.57241994   0.82553184 
H    0.27800455  -0.54185658   1.81720051 
H    1.07390376   0.65191039   2.80507486 
C    1.72560792  -0.02642058  -0.44193501 
C    2.73267698   0.16715792  -1.37653233 
C    3.72050964   1.13498601  -1.11442994 
C    2.84156462   1.45143295   1.08187145 
C    3.81122590   1.73526939   0.11378736 
H    2.78910501  -0.41435274  -2.27669083 
H    4.47694652   1.33011519  -1.87542431 
H    3.02195460   1.75725283   2.10801207 
H    4.50223498   2.55554571   0.29021857 
Pd   0.11714048  -1.38322277  -0.88881668 
Br  -1.49237301  -3.67850115  -0.84427452 
P    1.42945586  -3.00593178   0.11201435 
H    0.89069616  -3.54762654   1.28898849 
C    0.37437141  -1.47259770  -4.00380317 
O    1.62857291  -1.64281808  -4.20325338 
O   -0.53533879  -1.96422667  -3.08472813 
O   -0.10715425  -0.09485994  -4.38506607 
H    2.72239476  -2.78607762   0.53947870 
H    1.63188488  -4.16521292  -0.62935685 
H    0.62482265   0.30347343  -4.86673865 
*
