! EnGrad PBEh-3c
%output 
xyzfile=True 
end 
%scf 
maxiter 250 
end
%output
Print[P_Hirshfeld] = 1
end
% maxcore
4000
*xyz -1 1
C   -2.33910671  -0.11906169   0.79425683 
C   -1.89196826   0.98028544   1.44901660 
C   -3.68504356  -0.47707852   0.80849059 
C   -4.64166187   0.43912911   1.22827294 
C   -4.24625857   1.61945978   1.80941277 
C   -2.91124603   1.86257294   2.00747543 
H   -2.55359113  -1.37987610  -1.59635473 
H   -3.98932086  -1.49427856   0.67449642 
H   -2.61394567   2.86573698   2.26296316 
H   -5.69301562   0.24503417   1.03529081 
H   -4.98327633   2.30274555   2.19324168 
C   -0.49958861   1.52128098   1.56624960 
C    0.69442509   0.45907580   1.81469740 
H   -0.38871410   2.25970661   2.31376098 
H   -0.35647482   2.01110048   0.61280443 
C    1.77756234   0.60393074   0.81115046 
H    0.28971564  -0.53587265   1.83072039 
H    1.08230003   0.63706928   2.81085637 
C    1.70167038  -0.00403483  -0.44888340 
C    2.72993413   0.17529549  -1.36858069 
C    3.72894179   1.13053383  -1.11011886 
C    2.87405280   1.40583560   1.09474756 
C    3.80365462   1.74339205   0.10769828 
H    2.79834827  -0.40907172  -2.26255327 
H    4.47980397   1.33303662  -1.87695393 
H    3.03083152   1.75248978   2.10897208 
H    4.48757850   2.57222292   0.27937108 
Pd   0.17292960  -1.35231390  -0.85310908 
Br  -1.49223220  -3.71317050  -0.84336181 
P    1.41225864  -3.00579948   0.10299983 
H    0.90068310  -3.55016975   1.28874333 
C    0.32892565  -1.44094661  -3.91314329 
O    1.60155699  -1.68399213  -4.20474025 
O   -0.46717585  -1.95909016  -3.18976738 
O   -0.10482992  -0.12497396  -4.39065216 
H    2.71741846  -2.79550908   0.52708553 
H    1.64269213  -4.17017738  -0.62947473 
H    0.59978885   0.29714582  -4.84499700 
*
