! EnGrad PBEh-3c
%output 
xyzfile=True 
end 
%scf 
maxiter 250 
end
%output
Print[P_Hirshfeld] = 1
end
% maxcore
4000
*xyz -1 1
C   -2.34616758  -0.14105106   0.81733897 
C   -1.90232906   1.00528996   1.42248862 
C   -3.69451184  -0.47988672   0.79879152 
C   -4.64591447   0.41589527   1.26468461 
C   -4.25089794   1.63015740   1.79774925 
C   -2.91390855   1.86422817   1.99562433 
H   -2.51095772  -1.37888418  -1.55233829 
H   -3.98944454  -1.50012587   0.64962987 
H   -2.60066185   2.85726651   2.29338016 
H   -5.69264631   0.23974273   1.04562918 
H   -4.98062622   2.31303256   2.19331673 
C   -0.49997956   1.52433609   1.55172189 
C    0.69610716   0.45353151   1.81181832 
H   -0.39681431   2.27160432   2.31212583 
H   -0.34150164   2.00093786   0.59643714 
C    1.78958877   0.58500077   0.81677090 
H    0.28091724  -0.54188370   1.82183828 
H    1.07750085   0.64664477   2.80872528 
C    1.71131802  -0.02456976  -0.44607740 
C    2.73248021   0.17240039  -1.37100562 
C    3.72449106   1.13012136  -1.11592548 
C    2.85668419   1.43310233   1.08679882 
C    3.80550898   1.74135410   0.11328976 
H    2.79143994  -0.41264188  -2.27347509 
H    4.47727952   1.33120458  -1.87542479 
H    3.02371544   1.75759031   2.10810064 
H    4.49816775   2.55978665   0.28673108 
Pd   0.14166456  -1.37420532  -0.87369289 
Br  -1.49360117  -3.68839475  -0.84368208 
P    1.41819754  -3.00210374   0.10721075 
H    0.89445650  -3.54862375   1.28889287 
C    0.32529893  -1.47511169  -3.92539911 
O    1.59803746  -1.66044416  -4.20377025 
O   -0.45839471  -1.92902024  -3.16797593 
O   -0.10315187  -0.11763338  -4.38743378 
H    2.72324125  -2.78873280   0.53624823 
H    1.63575439  -4.16762877  -0.62981799 
H    0.61592953   0.29999154  -4.85934742 
*
