! EnGrad PBEh-3c
%output 
xyzfile=True 
end 
%scf 
maxiter 250 
end
%output
Print[P_Hirshfeld] = 1
end
% maxcore
4000
*xyz -1 1
C   -2.35121017  -0.17224643   0.86424408 
C   -1.94874749   1.03561969   1.35836264 
C   -3.70886608  -0.52065677   0.80793669 
C   -4.66375185   0.40272502   1.35418247 
C   -4.27202660   1.60750372   1.77709618 
C   -2.89680235   1.90705080   1.92820094 
H   -2.34217610  -1.37602799  -1.36947404 
H   -3.99455151  -1.51669277   0.54781849 
H   -2.56439141   2.81421790   2.39760976 
H   -5.70182827   0.21085803   1.09283977 
H   -4.98009127   2.35381375   2.18885326 
C   -0.47679526   1.52382457   1.51747122 
C    0.66361329   0.44680209   1.80365194 
H   -0.42947567   2.29326591   2.28217935 
H   -0.27480675   1.98097988   0.53391662 
C    1.80332256   0.53668405   0.80397522 
H    0.25223199  -0.55830815   1.79682356 
H    1.06054175   0.67338350   2.80583534 
C    1.71654797  -0.10703839  -0.43230115 
C    2.73329831   0.14804217  -1.39092548 
C    3.71655101   1.12982978  -1.10345611 
C    2.82476314   1.48457713   1.07285841 
C    3.78945812   1.74210330   0.09913416 
H    2.76170683  -0.41138237  -2.30302656 
H    4.47138022   1.32603008  -1.87698821 
H    2.98954798   1.78982566   2.10040734 
H    4.54189211   2.51461001   0.31303145 
Pd   0.07971546  -1.44989922  -0.90358553 
Br  -1.50960608  -3.59439262  -0.84583642 
P    1.41470662  -2.97343032   0.11170582 
H    0.87834979  -3.54229687   1.28646069 
C    0.51130685  -1.33810770  -4.04453658 
O    1.52325418  -1.65655483  -4.20432068 
O   -0.54197458  -1.94756437  -3.00820567 
O   -0.06216317  -0.10049835  -4.42529000 
H    2.74730832  -2.76437737   0.56643379 
H    1.61395874  -4.15819293  -0.63136675 
H    0.61825291   0.26837992  -4.87238257 
*
