! EnGrad PBEh-3c
%output 
xyzfile=True 
end 
%scf 
maxiter 250 
end
%output
Print[P_Hirshfeld] = 1
end
% maxcore
4000
*xyz 0 1
Pd   0.58482890   0.42387729  -0.43492885 
O    2.05905756   1.41222096   0.40774273 
C    1.63540866   2.62346202   0.28628654 
O    0.46903107   2.78127969  -0.09706167 
C    2.57167540   3.73491939   0.57757061 
H    2.06165045   4.59646173   1.02318441 
H    2.99300662   4.11320783  -0.36398989 
H    3.42810872   3.48215844   1.20916221 
N   -1.28081721  -0.51875528  -1.11862858 
C   -1.25807145  -1.38934725  -2.33026701 
H   -0.84443248  -0.82556655  -3.17608387 
H   -2.28567422  -1.74267715  -2.59426316 
H   -0.61740761  -2.26289893  -2.16257563 
C   -2.17636894   0.60477547  -1.46866729 
H   -2.26303066   1.29827161  -0.62963227 
H   -3.19167949   0.24418040  -1.74766305 
H   -1.75622447   1.12108935  -2.33775554 
C   -1.49298200  -0.94404363   1.35618682 
C   -0.73852166  -1.88966917   2.09001269 
C   -0.56423134  -1.78481225   3.45893168 
C   -1.20749874  -0.79812248   4.16766219 
C   -1.99814193   0.14330882   3.48473993 
C   -2.01335277   0.13613686   2.11153645 
H   -1.11910944  -0.70265199   5.23354870 
H   -2.65554396   0.84052108   4.02614542 
H   -0.34152913  -2.75494833   1.57514645 
H    0.00600555  -2.52459057   4.01115887 
H   -2.50687615   2.38312054   1.82126553 
C   -1.90572555  -1.29513308  -0.04713826 
H   -3.00825247  -1.22601888  -0.08611152 
H   -1.69271388  -2.35657748  -0.18438063 
O    1.89155073  -0.87182588  -1.18111993 
C    2.26522386  -0.62944117  -2.39480347 
O    1.61532119   0.03343252  -3.18640730 
C    3.58293651  -1.24116088  -2.75501529 
H    3.52304115  -2.33059862  -2.73114680 
H    4.38294676  -0.96504509  -2.05588183 
H    3.86726346  -0.93686430  -3.75665557 
*
