! EnGrad PBEh-3c
%output 
xyzfile=True 
end 
%scf 
maxiter 250 
end
%output
Print[P_Hirshfeld] = 1
end
% maxcore
4000
*xyz 0 1
Pd   0.57369516   0.40616519  -0.43480349 
O    2.07642826   1.37028279   0.38806970 
C    1.61976551   2.61807871   0.28336311 
O    0.44471045   2.77985137  -0.09849801 
C    2.59202624   3.72850192   0.57818161 
H    2.08314599   4.57396910   1.01997384 
H    3.00755823   4.07343216  -0.35172553 
H    3.42534724   3.44131228   1.21264156 
N   -1.29027106  -0.53546063  -1.14245923 
C   -1.23798526  -1.44287530  -2.30093720 
H   -0.81632071  -0.90615833  -3.14039239 
H   -2.25862634  -1.79830503  -2.55485143 
H   -0.61232899  -2.30052673  -2.08991446 
C   -2.17111686   0.59475933  -1.49601099 
H   -2.26523911   1.28616721  -0.67287750 
H   -3.17081833   0.21851838  -1.77782272 
H   -1.73952897   1.07787938  -2.36466111 
C   -1.52746546  -0.91560441   1.37484744 
C   -0.80557399  -1.91302216   2.10808222 
C   -0.61214915  -1.81649921   3.48113940 
C   -1.20934287  -0.77368009   4.16753504 
C   -1.94617237   0.22948160   3.48816128 
C   -1.97644131   0.18873634   2.13324554 
H   -1.10958295  -0.69960365   5.26006235 
H   -2.49613614   0.99824454   4.02555891 
H   -0.45599000  -2.80574972   1.58220322 
H   -0.07959693  -2.57348874   4.02430249 
H   -2.43672811   2.28403414   1.73471249 
C   -1.93840619  -1.28720666  -0.00409054 
H   -3.02757224  -1.15960112  -0.08422437 
H   -1.75144137  -2.33902420  -0.16451777 
O    1.90598795  -0.87738216  -1.17577496 
C    2.24682179  -0.60216819  -2.41363601 
O    1.57240956   0.02783774  -3.21316144 
C    3.61489021  -1.18281148  -2.76872469 
H    3.55644709  -2.26170137  -2.77827579 
H    4.37307350  -0.90155285  -2.06368695 
H    3.86897777  -0.83069565  -3.77213526 
*
