! EnGrad PBEh-3c
%output 
xyzfile=True 
end 
%scf 
maxiter 250 
end
%output
Print[P_Hirshfeld] = 1
end
% maxcore
4000
*xyz 0 1
Pd   0.57686903   0.42233851  -0.43450091 
O    2.07022894   1.39650728   0.40658533 
C    1.63030207   2.62182562   0.28794768 
O    0.46165157   2.78462611  -0.10018711 
C    2.58174823   3.74352775   0.57657534 
H    2.06490175   4.58978747   1.02252237 
H    2.99552435   4.10436641  -0.36115614 
H    3.42542079   3.47226647   1.20948850 
N   -1.28860051  -0.52464874  -1.13553314 
C   -1.25129594  -1.40188401  -2.32596014 
H   -0.84109908  -0.84497660  -3.16500582 
H   -2.27372440  -1.75126610  -2.58284990 
H   -0.61933305  -2.26845965  -2.14752682 
C   -2.17540762   0.60552800  -1.47558738 
H   -2.26398140   1.29540488  -0.64291014 
H   -3.18190396   0.23949289  -1.75149553 
H   -1.75294122   1.11123204  -2.34102475 
C   -1.50352539  -0.93368858   1.36258418 
C   -0.75585335  -1.89525827   2.09549588 
C   -0.57326670  -1.79328574   3.46659205 
C   -1.21098606  -0.78821049   4.16153404 
C   -1.99058406   0.16451899   3.48151711 
C   -2.00332508   0.14671388   2.11824940 
H   -1.11453894  -0.70099171   5.24090564 
H   -2.61541082   0.86351210   4.02228676 
H   -0.36473415  -2.76742812   1.57837420 
H   -0.01470481  -2.53532924   4.01326107 
H   -2.49245659   2.36565804   1.80641134 
C   -1.91481809  -1.29965176  -0.02840425 
H   -3.00995115  -1.21191852  -0.08550574 
H   -1.70690258  -2.35471882  -0.18205408 
O    1.89368520  -0.87510844  -1.17164123 
C    2.25615092  -0.61925746  -2.39858030 
O    1.60711618   0.03187102  -3.19733255 
C    3.59655413  -1.23209129  -2.75751548 
H    3.53065889  -2.31550312  -2.74301096 
H    4.37825023  -0.95095970  -2.06064507 
H    3.87044450  -0.91441523  -3.76217880 
*
