! EnGrad PBEh-3c
%output 
xyzfile=True 
end 
%scf 
maxiter 250 
end
%output
Print[P_Hirshfeld] = 1
end
% maxcore
4000
*xyz 0 1
Pd   0.55714627   0.36266717  -0.43244727 
O    2.07108535   1.34602449   0.34577917 
C    1.60563927   2.57393432   0.27464629 
O    0.43037611   2.77114890  -0.09193698 
C    2.60773432   3.68067704   0.58463391 
H    2.12424889   4.54028056   1.01794177 
H    3.04669618   4.00261322  -0.34320145 
H    3.42653347   3.36049299   1.22391938 
N   -1.30213403  -0.57105391  -1.13450729 
C   -1.21078082  -1.54781980  -2.23229297 
H   -0.75372952  -1.06524615  -3.08055711 
H   -2.21342951  -1.91802954  -2.48132089 
H   -0.59415222  -2.38898829  -1.93951158 
C   -2.15552441   0.55070188  -1.55889067 
H   -2.26803375   1.26841139  -0.75436427 
H   -3.14061198   0.16707011  -1.84316966 
H   -1.70143579   0.99587547  -2.42973564 
C   -1.57458453  -0.88657807   1.42675480 
C   -0.94738732  -1.95928930   2.13976312 
C   -0.72798360  -1.86105001   3.51619856 
C   -1.20593494  -0.72671081   4.19031939 
C   -1.81364701   0.37728955   3.51673000 
C   -1.91084999   0.31282401   2.14385430 
H   -1.08994016  -0.68644862   5.28745690 
H   -2.17905729   1.30578354   4.02176923 
H   -0.69461647  -2.90221786   1.60703303 
H   -0.25755717  -2.67573450   4.06035090 
H   -2.29608710   2.10634110   1.57209752 
C   -2.00254798  -1.24669117   0.03494285 
H   -3.07285502  -1.02931413  -0.07354099 
H   -1.87664322  -2.31389157  -0.12085114 
O    1.93167617  -0.86876003  -1.20048716 
C    2.22314791  -0.56040677  -2.44571553 
O    1.49376413   0.00047766  -3.24730365 
C    3.63910588  -1.04350772  -2.81617462 
H    3.62864258  -2.12756371  -2.87774636 
H    4.36931438  -0.76637938  -2.06889121 
H    3.87530435  -0.61675532  -3.79521891 
*
