! EnGrad PBEh-3c
%output 
xyzfile=True 
end 
%scf 
maxiter 250 
end
%output
Print[P_Hirshfeld] = 1
end
% maxcore
4000
*xyz 0 1
Pd   0.56731887   0.39038599  -0.43361477 
O    2.07093599   1.36910114   0.37321496 
C    1.61616127   2.59594463   0.28038105 
O    0.44376380   2.77700577  -0.09544225 
C    2.59597386   3.71012032   0.58102180 
H    2.09722937   4.56293976   1.01974599 
H    3.02249954   4.04935914  -0.35065657 
H    3.42607531   3.41247573   1.21703662 
N   -1.29509307  -0.54892266  -1.13555269 
C   -1.22963146  -1.47994358  -2.27607439 
H   -0.79403447  -0.96269347  -3.11983177 
H   -2.24208943  -1.84083754  -2.52874166 
H   -0.60554009  -2.33290156  -2.03621317 
C   -2.16511737   0.57674581  -1.51980310 
H   -2.26617726   1.28071263  -0.70180749 
H   -3.16013695   0.20053917  -1.80088186 
H   -1.72562195   1.04929231  -2.38839805 
C   -1.54168825  -0.90809418   1.39624360 
C   -0.85772337  -1.92894181   2.11869844 
C   -0.65513698  -1.83057691   3.49291909 
C   -1.20848139  -0.75566315   4.17714080 
C   -1.89620380   0.27901394   3.50072070 
C   -1.95389931   0.23497240   2.13297353 
H   -1.10203756  -0.69400403   5.26693188 
H   -2.38304088   1.10425377   4.02331387 
H   -0.54116708  -2.83980984   1.59247842 
H   -0.14366685  -2.61046139   4.03810895 
H   -2.38702230   2.22408589   1.67897813 
C   -1.96161811  -1.27100048   0.00588339 
H   -3.04378180  -1.11383490  -0.07961281 
H   -1.79688573  -2.33190437  -0.14899014 
O    1.91461535  -0.87253380  -1.18702285 
C    2.23852058  -0.58772790  -2.42401533 
O    1.54580250   0.01605087  -3.22400606 
C    3.62013164  -1.13149197  -2.78826315 
H    3.58269244  -2.21479586  -2.81440569 
H    4.37329851  -0.85258417  -2.06476388 
H    3.87218719  -0.75493812  -3.77974004 
*
