! EnGrad PBEh-3c
%output 
xyzfile=True 
end 
%scf 
maxiter 250 
end
%output
Print[P_Hirshfeld] = 1
end
% maxcore
4000
*xyz 0 1
Pd   0.55206746   0.35862606  -0.43048207 
O    2.06395694   1.35317019   0.34664022 
C    1.60921544   2.56722422   0.27459440 
O    0.44043274   2.77209836  -0.09198772 
C    2.60643775   3.67403703   0.58465341 
H    2.12461525   4.53972261   1.01942191 
H    3.05223725   4.00037436  -0.34729115 
H    3.42648718   3.35451650   1.22585105 
N   -1.30421358  -0.57681796  -1.12438915 
C   -1.20920259  -1.55544303  -2.22345012 
H   -0.74931012  -1.07837771  -3.07671548 
H   -2.20897792  -1.92745272  -2.47539298 
H   -0.59339421  -2.39776109  -1.92675926 
C   -2.15160304   0.54236027  -1.56566367 
H   -2.26745132   1.26879448  -0.76482795 
H   -3.13889065   0.16381352  -1.84773435 
H   -1.69606025   0.99042201  -2.43680132 
C   -1.57607113  -0.88940929   1.43433143 
C   -0.96415957  -1.96308115   2.14498518 
C   -0.74283722  -1.85938750   3.51938538 
C   -1.20410298  -0.72055285   4.19312849 
C   -1.79688014   0.38029470   3.51534667 
C   -1.90524673   0.32542939   2.13672835 
H   -1.08437574  -0.67949525   5.28113348 
H   -2.14882535   1.30459488   4.01378343 
H   -0.71518706  -2.90763640   1.61766366 
H   -0.27954210  -2.68136511   4.06595846 
H   -2.28714321   2.11142913   1.57444491 
C   -2.00779363  -1.24309120   0.03188366 
H   -3.07612636  -1.02153680  -0.06917157 
H   -1.89264957  -2.31701702  -0.11889019 
O    1.92989292  -0.86110748  -1.20759505 
C    2.22414883  -0.56069812  -2.44578329 
O    1.49060758  -0.00780653  -3.24955849 
C    3.63380041  -1.02891776  -2.82374442 
H    3.63737481  -2.11649942  -2.89035037 
H    4.36977145  -0.75317938  -2.07121639 
H    3.88007511  -0.60054420  -3.79632921 
*
