! EnGrad PBEh-3c
%output 
xyzfile=True 
end 
%scf 
maxiter 250 
end
%output
Print[P_Hirshfeld] = 1
end
% maxcore
4000
*xyz 0 1
Pd   0.54024697   0.46997485  -0.44301157 
O    2.10846613   1.41284760   0.48712675 
C    1.61035646   2.68323299   0.28709149 
O    0.53968171   2.80478758  -0.10124341 
C    2.57963985   3.82009605   0.56550625 
H    2.00530761   4.62708292   1.03144963 
H    2.95698793   4.18761267  -0.38461172 
H    3.41491351   3.55640646   1.19787758 
N   -1.29901844  -0.50291873  -1.16065095 
C   -1.27358928  -1.28872481  -2.39797778 
H   -0.92528857  -0.68453755  -3.22078650 
H   -2.29080171  -1.60598989  -2.65282353 
H   -0.65712395  -2.16348087  -2.31363214 
C   -2.18380880   0.64771193  -1.41779215 
H   -2.26274197   1.31486026  -0.58625734 
H   -3.19263707   0.30438731  -1.66589877 
H   -1.79332022   1.20392612  -2.26285349 
C   -1.46459779  -0.96263576   1.32343714 
C   -0.61265822  -1.85645624   2.07878147 
C   -0.47165363  -1.73357616   3.43560605 
C   -1.21038999  -0.81575020   4.12041392 
C   -2.14357836  -0.00472076   3.41994733 
C   -2.06705447   0.03014087   2.09085204 
H   -1.11531074  -0.70029272   5.19872755 
H   -2.92523565   0.43214441   3.99971232 
H   -0.10405042  -2.66447377   1.57890306 
H    0.15778863  -2.43058641   3.98036073 
H   -2.65293546   2.62068465   2.02715622 
C   -1.85282144  -1.36652913  -0.04932493 
H   -2.95204734  -1.36151798  -0.08467296 
H   -1.59271457  -2.40523167  -0.23985613 
O    1.84893067  -0.86902949  -1.11855081 
C    2.26217887  -0.64459984  -2.36685886 
O    1.71571516   0.03176618  -3.16318683 
C    3.57620020  -1.38690436  -2.71903095 
H    3.46037876  -2.46216502  -2.65315217 
H    4.37644989  -1.08851028  -2.07121727 
H    3.89136010  -1.15142205  -3.74852452 
*
