! EnGrad PBEh-3c
%output 
xyzfile=True 
end 
%scf 
maxiter 250 
end
%output
Print[P_Hirshfeld] = 1
end
% maxcore
4000
*xyz 0 1
Pd   0.54695651   0.46957472  -0.44014550 
O    2.10024255   1.41946342   0.48127877 
C    1.64384640   2.66867245   0.30064061 
O    0.50869686   2.80934920  -0.11197616 
C    2.57648491   3.81952571   0.56556772 
H    2.00717876   4.62667665   1.03097867 
H    2.95825042   4.18698820  -0.38490784 
H    3.41575819   3.55431650   1.19853565 
N   -1.30041414  -0.50331259  -1.15997791 
C   -1.27497271  -1.29061435  -2.39806141 
H   -0.92298085  -0.68622518  -3.22011241 
H   -2.29070887  -1.60825280  -2.65115255 
H   -0.65487140  -2.16645337  -2.31054966 
C   -2.18459012   0.64622992  -1.42014640 
H   -2.26270963   1.31608721  -0.58401478 
H   -3.19239730   0.30292489  -1.66746839 
H   -1.79237097   1.20239487  -2.26456225 
C   -1.46082873  -0.96372667   1.32865743 
C   -0.61926950  -1.85408393   2.07478068 
C   -0.46954164  -1.73562324   3.43727214 
C   -1.21523982  -0.81332055   4.12127510 
C   -2.13757776  -0.00330503   3.42926162 
C   -2.06679320   0.03113092   2.08755893 
H   -1.11606870  -0.70052166   5.19805365 
H   -2.92096395   0.44149710   3.99988658 
H   -0.10768613  -2.66650698   1.57776935 
H    0.15513487  -2.43153269   3.98041424 
H   -2.65005961   2.61346162   2.02264478 
C   -1.85490728  -1.36322571  -0.05235742 
H   -2.95257674  -1.35879792  -0.08556309 
H   -1.59319367  -2.40482427  -0.23871479 
O    1.85077420  -0.87023081  -1.12262111 
C    2.26696208  -0.65153700  -2.35752940 
O    1.70823296   0.03919463  -3.17179037 
C    3.57442056  -1.38335982  -2.72154397 
H    3.46130107  -2.46086927  -2.65393166 
H    4.37815814  -1.08610126  -2.06906679 
H    3.88982157  -1.14783502  -3.74726619 
*
