! EnGrad PBEh-3c
%output 
xyzfile=True 
end 
%scf 
maxiter 250 
end
%output
Print[P_Hirshfeld] = 1
end
% maxcore
4000
*xyz 0 1
Pd   0.56825567   0.46788085  -0.43226300 
O    2.07250511   1.45132580   0.45958633 
C    1.65195839   2.61764375   0.30591140 
O    0.50020555   2.80733175  -0.11148910 
C    2.57250501   3.80899638   0.57011062 
H    2.01669245   4.62321114   1.02900508 
H    2.96546213   4.17897669  -0.38481739 
H    3.41961384   3.54346903   1.20085918 
N   -1.30206131  -0.50605553  -1.14996933 
C   -1.27784904  -1.30558812  -2.39212816 
H   -0.90878908  -0.70338656  -3.21502517 
H   -2.29148878  -1.62769754  -2.64179212 
H   -0.64461279  -2.18446269  -2.28809229 
C   -2.18618471   0.63790898  -1.43092582 
H   -2.26236299   1.31777952  -0.58171306 
H   -3.19293188   0.29289253  -1.67997880 
H   -1.78607316   1.19055114  -2.27693091 
C   -1.45195652  -0.96768693   1.34363580 
C   -0.64661080  -1.85228256   2.06850575 
C   -0.47649772  -1.74141133   3.43900767 
C   -1.22541621  -0.80767671   4.13081160 
C   -2.10507264   0.01218505   3.45686196 
C   -2.06293135   0.04506470   2.08398256 
H   -1.11884356  -0.70099120   5.19712825 
H   -2.88671855   0.50558856   4.00357562 
H   -0.14023393  -2.67975496   1.57472638 
H    0.13509816  -2.44461740   3.98526052 
H   -2.62902236   2.57521429   1.99135133 
C   -1.86449628  -1.34577346  -0.06314671 
H   -2.96021143  -1.33913162  -0.08752863 
H   -1.60429613  -2.39977210  -0.22996874 
O    1.86107047  -0.87452876  -1.13981175 
C    2.26406071  -0.64871894  -2.35910673 
O    1.69442334   0.03967310  -3.17392146 
C    3.56917596  -1.35957241  -2.73184526 
H    3.46997888  -2.44550367  -2.66329229 
H    4.38470670  -1.06823611  -2.06135258 
H    3.88283919  -1.11797451  -3.74385635 
*
