! EnGrad PBEh-3c
%output 
xyzfile=True 
end 
%scf 
maxiter 250 
end
%output
Print[P_Hirshfeld] = 1
end
% maxcore
4000
*xyz -1 1
Pd  -1.96667853  -1.48539196   0.53266027 
Cl  -2.86536194  -3.33527402  -0.55726476 
Cl   0.26358217  -5.24236933   0.02480997 
Cl  -3.72612806  -1.53380655   2.05995931 
N   -1.11295955   0.20916527   1.34509071 
C   -1.49523565   0.81634967   2.45099733 
C   -0.91545629   2.01077908   2.88862926 
C    0.08805233   2.58088706   2.14259479 
C   -0.11751086   0.74540194   0.60432951 
C    0.51341248   1.94810792   0.96727654 
H    0.54793555   3.51030678   2.45749098 
H   -2.28358283   0.33161294   3.01192956 
H   -1.26653371   2.47037561   3.80154702 
C    0.26584605   0.03079168  -0.56500724 
C    1.54659574   2.45248461   0.11548458 
C    1.90883504   1.78296807  -1.00581806 
C    1.28798401   0.54898724  -1.38326671 
H    2.03528081   3.38109258   0.38272608 
H    2.69369786   2.18111148  -1.63840252 
C   -0.40026097  -1.18068180  -0.85379623 
C    1.65268432  -0.17356508  -2.52752676 
C   -0.01715860  -1.85522534  -1.99973362 
C    1.00956801  -1.35760174  -2.81476234 
H    2.43660412   0.19792302  -3.17688396 
H    1.29759424  -1.91937938  -3.69450440 
H   -0.85606205  -4.35146139  -0.27605812 
H   -0.52474456  -2.76358837  -2.29250206 
*
