! EnGrad PBEh-3c
%output 
xyzfile=True 
end 
%scf 
maxiter 250 
end
%output
Print[P_Hirshfeld] = 1
end
% maxcore
4000
*xyz -1 1
Pd  -1.92271318  -1.47651332   0.48018628 
Cl  -2.84980093  -3.33519624  -0.55517874 
Cl   0.16837377  -5.16433311   0.02586818 
Cl  -3.74742897  -1.51404761   2.05876261 
N   -1.11391295   0.19985081   1.34779073 
C   -1.49065724   0.80951861   2.46055591 
C   -0.90985950   2.00415914   2.88652952 
C    0.08673606   2.57629703   2.14346944 
C   -0.11480242   0.74264436   0.60335930 
C    0.51435121   1.94851667   0.96733968 
H    0.54876083   3.50768091   2.45632483 
H   -2.28018620   0.32281899   3.01353483 
H   -1.26307898   2.46337830   3.80535055 
C    0.27101942   0.01836551  -0.57149721 
C    1.54267197   2.44988441   0.11228509 
C    1.90550616   1.78562438  -1.00802654 
C    1.29018949   0.55385827  -1.38333705 
H    2.03070416   3.38325749   0.38171607 
H    2.68893449   2.18579442  -1.64217625 
C   -0.44830294  -1.19011352  -0.81716911 
C    1.65409187  -0.17330002  -2.53022581 
C   -0.01197111  -1.85087773  -1.99469473 
C    1.01259791  -1.35759525  -2.81701210 
H    2.43587191   0.20404972  -3.17945521 
H    1.30421654  -1.91714153  -3.70004589 
H   -0.78408135  -4.40810111  -0.24961551 
H   -0.51889917  -2.76980167  -2.29274825 
*
