! EnGrad PBEh-3c
%output 
xyzfile=True 
end 
%scf 
maxiter 250 
end
%output
Print[P_Hirshfeld] = 1
end
% maxcore
4000
*xyz -1 1
Pd  -1.92691076  -1.47667695   0.47059909 
Cl  -2.83560271  -3.33272975  -0.55981398 
Cl   0.18341943  -5.17283793   0.05145340 
Cl  -3.75162718  -1.49606732   2.04891163 
N   -1.10343717   0.20186388   1.34571635 
C   -1.48582125   0.79764504   2.45822140 
C   -0.90937513   1.99898705   2.89291800 
C    0.08970160   2.57546800   2.14185137 
C   -0.11254294   0.73916550   0.60383186 
C    0.51325842   1.94366329   0.96521140 
H    0.54870323   3.50477252   2.45514765 
H   -2.27977956   0.31449338   3.01579292 
H   -1.25876587   2.45607281   3.80538732 
C    0.26084393   0.01490528  -0.55927766 
C    1.54154336   2.45448160   0.11308667 
C    1.90315420   1.78656896  -1.01056406 
C    1.28618978   0.54328705  -1.38625259 
H    2.02587865   3.38290578   0.37997193 
H    2.68457593   2.18940058  -1.64523383 
C   -0.43375901  -1.18930514  -0.84261721 
C    1.65626441  -0.16995214  -2.53154051 
C   -0.02645089  -1.85416273  -1.97800292 
C    1.00923978  -1.35624083  -2.80881299 
H    2.43539310   0.20880398  -3.18188903 
H    1.30634380  -1.91485742  -3.70020623 
H   -0.81380073  -4.38460093  -0.25073107 
H   -0.51011321  -2.76815969  -2.29050255 
*
