! EnGrad PBEh-3c
%output 
xyzfile=True 
end 
%scf 
maxiter 250 
end
%output
Print[P_Hirshfeld] = 1
end
% maxcore
4000
*xyz -1 1
Pd  -1.92991976  -1.47537338   0.46736208 
Cl  -2.82689847  -3.33249582  -0.56367544 
Cl   0.18514947  -5.17205268   0.06296350 
Cl  -3.75239230  -1.48637105   2.04279018 
N   -1.10121474   0.19962851   1.34534659 
C   -1.48326275   0.79439193   2.45955643 
C   -0.90642539   1.99457219   2.89163829 
C    0.08811609   2.57221309   2.14263046 
C   -0.11085283   0.73866290   0.60489168 
C    0.51453986   1.94353541   0.96438363 
H    0.54912628   3.50391752   2.45444130 
H   -2.27885521   0.30987762   3.01564408 
H   -1.25722644   2.45280259   3.80721920 
C    0.26303796   0.01513446  -0.56162759 
C    1.53977915   2.45326091   0.11138656 
C    1.90015238   1.78498631  -1.01115551 
C    1.28289865   0.54301673  -1.38113027 
H    2.02404429   3.38438636   0.37956389 
H    2.68221035   2.19113396  -1.64704521 
C   -0.43369719  -1.18574058  -0.84334149 
C    1.65472786  -0.17249102  -2.53275417 
C   -0.02366467  -1.85599468  -1.98285395 
C    1.00672726  -1.35702726  -2.80505377 
H    2.43518656   0.21129075  -3.18321945 
H    1.30582955  -1.91271356  -3.69727835 
H   -0.82405788  -4.37730223  -0.24892879 
H   -0.50766115  -2.76952676  -2.28867460 
*
