! EnGrad PBEh-3c
%output 
xyzfile=True 
end 
%scf 
maxiter 250 
end
%output
Print[P_Hirshfeld] = 1
end
% maxcore
4000
*xyz -1 1
Pd  -1.93570461  -1.47113647   0.46500880 
Cl  -2.81119971  -3.33355832  -0.57188832 
Cl   0.18149781  -5.16523387   0.07907264 
Cl  -3.75188622  -1.47071686   2.03194444 
N   -1.09971896   0.19494353   1.34579858 
C   -1.47976640   0.78875379   2.46139253 
C   -0.90361883   1.98720391   2.89255872 
C    0.08852560   2.56867958   2.14216418 
C   -0.10734402   0.73782682   0.60539272 
C    0.51554957   1.94331321   0.96499670 
H    0.54894737   3.50138036   2.45302695 
H   -2.27651426   0.30269611   3.01414262 
H   -1.25418404   2.44658190   3.80885380 
C    0.26581957   0.01736695  -0.56396579 
C    1.53797904   2.45263619   0.10853355 
C    1.89625994   1.78294557  -1.01219816 
C    1.28257830   0.54268151  -1.37931647 
H    2.02075360   3.38612217   0.37845903 
H    2.67686812   2.19258019  -1.64929308 
C   -0.43505201  -1.18220630  -0.84459208 
C    1.65063105  -0.17347770  -2.52948910 
C   -0.01936460  -1.85626038  -1.98863798 
C    1.00624765  -1.35948003  -2.80489094 
H    2.43321758   0.21398047  -3.18429664 
H    1.30334907  -1.90895934  -3.69008326 
H   -0.83519662  -4.37098405  -0.24315074 
H   -0.50547440  -2.77414075  -2.28580538 
*
