! EnGrad PBEh-3c
%output 
xyzfile=True 
end 
%scf 
maxiter 250 
end
%output
Print[P_Hirshfeld] = 1
end
% maxcore
4000
*xyz -1 1
Pd  -1.94384406  -1.45490434   0.45791314 
Cl  -2.76466258  -3.33992997  -0.60004107 
Cl   0.15163467  -5.12928691   0.11575356 
Cl  -3.74987924  -1.42906367   2.00197457 
N   -1.09551853   0.18547146   1.34577686 
C   -1.47097577   0.77288110   2.46426557 
C   -0.89480639   1.96968768   2.89789375 
C    0.09076036   2.56017397   2.14398047 
C   -0.10304877   0.73264892   0.60722373 
C    0.51789239   1.93951576   0.96662319 
H    0.54674322   3.49375439   2.44964938 
H   -2.26936876   0.28330152   3.00836046 
H   -1.24520578   2.42713786   3.81232970 
C    0.26614038   0.01996386  -0.56701267 
C    1.53348771   2.45428591   0.10424828 
C    1.89228118   1.78467508  -1.01482260 
C    1.28689004   0.54443099  -1.38179245 
H    2.01135377   3.38907538   0.37265230 
H    2.66064742   2.19373795  -1.65576514 
C   -0.44025590  -1.17733720  -0.84886011 
C    1.64861066  -0.17074436  -2.52636908 
C   -0.01995631  -1.85657957  -1.99034434 
C    1.00864932  -1.35614712  -2.80220580 
H    2.41912410   0.21558240  -3.18004915 
H    1.29895473  -1.90843286  -3.68150602 
H   -0.84935094  -4.37060166  -0.21743764 
H   -0.50084342  -2.78656571  -2.27683095 
*
