! EnGrad PBEh-3c
%output 
xyzfile=True 
end 
%scf 
maxiter 250 
end
%output
Print[P_Hirshfeld] = 1
end
% maxcore
4000
*xyz -1 1
Pd  -1.94055901  -1.45120859   0.45038335 
Cl  -2.74895664  -3.34132068  -0.61118683 
Cl   0.14606593  -5.11960502   0.13075822 
Cl  -3.75228796  -1.41538143   1.99271907 
N   -1.09250834   0.18495414   1.34354508 
C   -1.46884567   0.76742367   2.46585983 
C   -0.89080150   1.96505977   2.90041591 
C    0.09187276   2.55644532   2.14577581 
C   -0.10293023   0.73027328   0.60648105 
C    0.51822762   1.93603386   0.96651737 
H    0.54558130   3.49194618   2.44958026 
H   -2.26666403   0.27683481   3.00669580 
H   -1.24202933   2.41943387   3.81448366 
C    0.26384340   0.01909887  -0.56675387 
C    1.53141899   2.45605122   0.10565195 
C    1.89167554   1.78707305  -1.01512024 
C    1.28600423   0.54501017  -1.38208681 
H    2.00809681   3.39033912   0.36967503 
H    2.65752482   2.19529464  -1.66021952 
C   -0.44118691  -1.17709514  -0.85107775 
C    1.64796486  -0.16954925  -2.52524953 
C   -0.02475682  -1.85693017  -1.98475184 
C    1.00728240  -1.35538543  -2.80033917 
H    2.41682583   0.21663122  -3.18073586 
H    1.29925097  -1.91164922  -3.68333160 
H   -0.85980970  -4.36746860  -0.20816819 
H   -0.49828130  -2.78805646  -2.27321524 
*
