! EnGrad PBEh-3c
%output 
xyzfile=True 
end 
%scf 
maxiter 250 
end
%output
Print[P_Hirshfeld] = 1
end
% maxcore
4000
*xyz -1 1
Pd  -1.93453503  -1.44876525   0.43966374 
Cl  -2.73077976  -3.34229594  -0.62540871 
Cl   0.14217915  -5.10953593   0.14981443 
Cl  -3.75686398  -1.40005140   1.98214933 
N   -1.09128419   0.18512873   1.34268478 
C   -1.46426283   0.76234264   2.46560913 
C   -0.88722682   1.95823756   2.90392944 
C    0.09450057   2.55183459   2.14734220 
C   -0.10208595   0.72872304   0.60430566 
C    0.51845664   1.93245998   0.96742235 
H    0.54390835   3.48997058   2.45017405 
H   -2.26416711   0.26887657   3.00549074 
H   -1.23825665   2.41016808   3.81835091 
C    0.26190434   0.01840471  -0.56751201 
C    1.52924304   2.45685823   0.10661400 
C    1.89048921   1.79038228  -1.01478135 
C    1.28298916   0.54678387  -1.38025869 
H    2.00450862   3.39310894   0.36634430 
H    2.65509131   2.19786778  -1.66628773 
C   -0.44292379  -1.17617643  -0.85082814 
C    1.64708443  -0.16952319  -2.52569148 
C   -0.02815818  -1.85766349  -1.98057842 
C    1.00380070  -1.35668920  -2.79858095 
H    2.41540152   0.21789191  -3.18247096 
H    1.29949544  -1.91582030  -3.68532017 
H   -0.87534886  -4.36238007  -0.19662227 
H   -0.49574375  -2.78889598  -2.26840832 
*
