! EnGrad PBEh-3c
%output 
xyzfile=True 
end 
%scf 
maxiter 250 
end
%output
Print[P_Hirshfeld] = 1
end
% maxcore
4000
*xyz 1 1
Sc   0.71403094  -0.56849423  -2.00658064 
C    0.18283717  -0.39983949   0.20610423 
N   -0.46378954  -1.31894479   0.94166326 
C   -0.55450689  -0.92023513   2.24309802 
C    0.06544316   0.27637526   2.32587666 
N    0.46756038   0.59847337   1.06239545 
C    1.22218853   1.79841471   0.76343502 
H    0.83953525   2.64726544   1.32584960 
H    1.12437361   2.05622547  -0.28800277 
H    2.27862169   1.66093817   0.98635909 
C   -0.97935453  -2.59425031   0.47988478 
H   -0.96485192  -2.63746595  -0.60633839 
H   -2.01041553  -2.71162912   0.80471737 
H   -0.37587597  -3.41129727   0.87001811 
H   -1.03269080  -1.50514620   3.00999532 
H    0.23212349   0.89798638   3.18873775 
C    0.14232846   1.57261963  -2.94794135 
H   -0.38439707   1.48023940  -3.90671476 
H    0.96556774   2.27411519  -3.12232964 
H   -0.56484444   2.05704338  -2.26490232 
H   -0.90385534  -1.25239072  -3.06532641 
*
