! EnGrad PBEh-3c
%output 
xyzfile=True 
end 
%scf 
maxiter 250 
end
%output
Print[P_Hirshfeld] = 1
end
% maxcore
4000
*xyz 1 1
Sc   0.61423713  -0.48540507  -2.10688767 
C    0.19242320  -0.40513036   0.19427317 
N   -0.46305511  -1.32029021   0.94852415 
C   -0.56067467  -0.91988757   2.24711125 
C    0.04462948   0.28474489   2.32773144 
N    0.48584657   0.58709640   1.07281872 
C    1.23819764   1.80081522   0.74483480 
H    0.86233921   2.63582594   1.33683258 
H    1.11913424   2.05607853  -0.29002219 
H    2.28704194   1.64558296   0.97956138 
C   -0.97415041  -2.59757071   0.47532742 
H   -0.95141167  -2.64684520  -0.60605604 
H   -2.01141703  -2.71015850   0.79205003 
H   -0.38444046  -3.41309482   0.88893698 
H   -1.05055049  -1.49649786   3.00407148 
H    0.21822263   0.91116477   3.18019543 
C    0.16348899   1.52235937  -2.91497484 
H   -0.38754494   1.46473003  -3.89105922 
H    0.95374332   2.27894953  -3.11051615 
H   -0.57054713   2.04007640  -2.25099442 
H   -0.82560249  -1.23199794  -3.01989507 
*
