! EnGrad PBEh-3c
%output 
xyzfile=True 
end 
%scf 
maxiter 250 
end
%output
Print[P_Hirshfeld] = 1
end
% maxcore
4000
*xyz 1 1
Sc   0.49888369  -0.36481955  -2.17808774 
C    0.20317668  -0.40946285   0.18670676 
N   -0.45534863  -1.32072292   0.93827156 
C   -0.57089626  -0.91256839   2.23962295 
C    0.03890543   0.29249124   2.31822248 
N    0.49905896   0.57778171   1.06264589 
C    1.25044450   1.78126192   0.74336365 
H    0.89335221   2.61430762   1.35022488 
H    1.11396275   2.05343377  -0.29841667 
H    2.30774023   1.63170375   0.96161481 
C   -0.97086582  -2.59817243   0.47566104 
H   -0.92876977  -2.65809058  -0.60686732 
H   -2.01265006  -2.70814511   0.77262883 
H   -0.39635832  -3.41495585   0.91063187 
H   -1.07710236  -1.48985351   2.99890303 
H    0.19261428   0.93727697   3.16897113 
C    0.15804817   1.54475815  -2.90716760 
H   -0.37636851   1.42446651  -3.84763445 
H    0.94208936   2.26405396  -3.08142088 
H   -0.56307857   1.99788377  -2.23164828 
H   -0.74629322  -1.23993138  -2.97075140 
*
