! EnGrad PBEh-3c
%output 
xyzfile=True 
end 
%scf 
maxiter 250 
end
%output
Print[P_Hirshfeld] = 1
end
% maxcore
4000
*xyz 1 1
Sc   0.50449061  -0.35362154  -2.15001934 
C    0.20322407  -0.40945989   0.18407744 
N   -0.45445624  -1.32033487   0.93461930 
C   -0.57268048  -0.91016891   2.23516919 
C    0.04394293   0.29105619   2.31535584 
N    0.49608604   0.57874744   1.05770720 
C    1.25286340   1.77674597   0.74410544 
H    0.89760979   2.60796660   1.35136757 
H    1.11511794   2.05099266  -0.29562871 
H    2.31193289   1.63109354   0.95493328 
C   -0.97091986  -2.59817447   0.47518256 
H   -0.92329951  -2.65976721  -0.60664183 
H   -2.01340813  -2.70690457   0.76927631 
H   -0.39820297  -3.41437137   0.91195871 
H   -1.07921889  -1.48754728   2.99473468 
H    0.18622095   0.94206791   3.16373494 
C    0.15076860   1.56664487  -2.91165939 
H   -0.37844642   1.41449526  -3.84968115 
H    0.95220521   2.26883384  -3.07670460 
H   -0.56787721   1.99607159  -2.22059460 
H   -0.75485679  -1.26058103  -2.97483064 
*
