! EnGrad PBEh-3c
%output 
xyzfile=True 
end 
%scf 
maxiter 250 
end
%output
Print[P_Hirshfeld] = 1
end
% maxcore
4000
*xyz 1 1
Sc   0.50215011  -0.32829958  -2.10315902 
C    0.20118642  -0.40873426   0.18301764 
N   -0.45574916  -1.32033947   0.92892889 
C   -0.57384335  -0.90759072   2.22508392 
C    0.04915393   0.28986937   2.30731198 
N    0.49488117   0.57950981   1.05261707 
C    1.26081548   1.76936071   0.74362013 
H    0.90761983   2.59454634   1.35526386 
H    1.11753272   2.04764958  -0.29274751 
H    2.32168166   1.62651546   0.93968556 
C   -0.97105282  -2.59821275   0.47233490 
H   -0.91034580  -2.66465612  -0.60794320 
H   -2.01533725  -2.70314440   0.76064252 
H   -0.40195885  -3.41337501   0.91603155 
H   -1.08361329  -1.48078405   2.98256624 
H    0.17185428   0.95280445   3.14940301 
C    0.14389855   1.58888690  -2.90970243 
H   -0.38537401   1.39603726  -3.85773869 
H    0.97448041   2.28761332  -3.06762503 
H   -0.58484163   2.00174850  -2.19394071 
H   -0.76060154  -1.30308519  -2.97468287 
*
