! EnGrad PBEh-3c
%output 
xyzfile=True 
end 
%scf 
maxiter 250 
end
%output
Print[P_Hirshfeld] = 1
end
% maxcore
4000
*xyz 1 1
Sc   0.50978818  -0.33952797  -2.07747201 
C    0.19652280  -0.40717903   0.18851845 
N   -0.45809507  -1.31892535   0.92540837 
C   -0.57091296  -0.90790121   2.22282980 
C    0.04781946   0.28914148   2.30776466 
N    0.49697731   0.58045307   1.04952354 
C    1.26310544   1.76995814   0.74507563 
H    0.90877695   2.59173262   1.35556314 
H    1.11950570   2.04843695  -0.29385497 
H    2.32472154   1.62373560   0.93394554 
C   -0.97274808  -2.59944254   0.47139236 
H   -0.90649041  -2.66605111  -0.61129466 
H   -2.01588490  -2.70079979   0.75748408 
H   -0.40207338  -3.41193819   0.91448784 
H   -1.08190141  -1.47847666   2.97621392 
H    0.16819779   0.95416732   3.14163641 
C    0.14335539   1.59277175  -2.90465422 
H   -0.38612198   1.39797721  -3.86081986 
H    0.97722439   2.29744597  -3.06645012 
H   -0.59115099   2.01571668  -2.19063273 
H   -0.76719395  -1.32374765  -2.97462113 
*
