! EnGrad PBEh-3c
%output 
xyzfile=True 
end 
%scf 
maxiter 250 
end
%output
Print[P_Hirshfeld] = 1
end
% maxcore
4000
*xyz -1 1
C   -2.35281756  -0.14176726   0.80016515 
C   -1.90290479   1.00429272   1.42999888 
C   -3.70122580  -0.46948136   0.79753308 
C   -4.64244380   0.43412418   1.25576160 
C   -4.23776272   1.63420747   1.81701608 
C   -2.89299243   1.85965942   1.98714652 
H   -2.51555888  -1.40429059  -1.54087604 
H   -4.01427177  -1.48572520   0.63157661 
H   -2.58881914   2.84847675   2.31341587 
H   -5.69362059   0.26091011   1.06301741 
H   -4.95790196   2.33010677   2.20523889 
C   -0.47973567   1.48707575   1.54265364 
C    0.68622562   0.46064330   1.81009369 
H   -0.39754474   2.25367439   2.30405549 
H   -0.35550241   2.00264427   0.59251222 
C    1.78366785   0.59587136   0.81210147 
H    0.28520647  -0.54423520   1.82903220 
H    1.07538074   0.65231284   2.80532520 
C    1.71066486  -0.03805265  -0.43998807 
C    2.73479347   0.17759567  -1.36051770 
C    3.72535937   1.13023970  -1.11447805 
C    2.86069241   1.43135090   1.09006167 
C    3.79364363   1.76089285   0.11589346 
H    2.79115094  -0.40643107  -2.26983952 
H    4.47529990   1.33280231  -1.87116550 
H    3.00304905   1.79571286   2.10258903 
H    4.49039760   2.57431295   0.28229383 
Pd   0.16303935  -1.37116618  -0.86840040 
Br  -1.48932978  -3.72359216  -0.86190217 
P    1.40824211  -3.00689868   0.10282505 
H    0.88977437  -3.55655431   1.28024351 
C    0.39402866  -1.42552066  -3.95970157 
O    1.57625371  -1.66590074  -4.19565788 
O   -0.48763490  -1.97110710  -3.13571915 
O   -0.11049984  -0.14454423  -4.38655005 
H    2.71561450  -2.78982036   0.53504223 
H    1.64133351  -4.17185903  -0.63521252 
H    0.61241931   0.29329586  -4.86624844 
*
