! EnGrad PBEh-3c
%output 
xyzfile=True 
end 
%scf 
maxiter 250 
end
%output
Print[P_Hirshfeld] = 1
end
% maxcore
4000
*xyz -1 1
C   -2.34800109  -0.15646932   0.80991288 
C   -1.91779136   1.04208801   1.40451422 
C   -3.70290318  -0.46909248   0.77645576 
C   -4.64837564   0.41559689   1.27574373 
C   -4.24398559   1.63853636   1.79453597 
C   -2.87976345   1.87487390   1.94494342 
H   -2.44086066  -1.42942325  -1.49450610 
H   -4.00435335  -1.48555224   0.56842326 
H   -2.56746350   2.83987072   2.34026791 
H   -5.68898031   0.25175877   1.05591106 
H   -4.95866211   2.34462000   2.18477743 
C   -0.46415975   1.47591022   1.54912663 
C    0.68065056   0.45834601   1.82085709 
H   -0.42235652   2.24833220   2.35011553 
H   -0.31161611   2.00583732   0.62097841 
C    1.78978549   0.58091302   0.81471264 
H    0.27847628  -0.55797567   1.82868765 
H    1.08469602   0.65613102   2.81912166 
C    1.70205793  -0.06863714  -0.43503143 
C    2.72445235   0.17903890  -1.36131463 
C    3.71027641   1.13055448  -1.12226952 
C    2.84381477   1.45676956   1.08417555 
C    3.78689656   1.76374898   0.11818420 
H    2.76487533  -0.40319749  -2.28393179 
H    4.46107895   1.33289098  -1.87356787 
H    2.99397223   1.80739820   2.10220865 
H    4.50267680   2.55663926   0.28884115 
Pd   0.12600871  -1.39940207  -0.87900416 
Br  -1.49999167  -3.67921893  -0.84052887 
P    1.41100052  -2.99316950   0.09388849 
H    0.90229257  -3.56098500   1.27518455 
C    0.41918886  -1.39971214  -3.98179494 
O    1.54594418  -1.65162980  -4.19582226 
O   -0.50688616  -1.98369359  -3.09428693 
O   -0.11243159  -0.16463730  -4.37187380 
H    2.73526457  -2.78048597   0.52485496 
H    1.62805264  -4.16521443  -0.65274274 
H    0.62035226   0.29323582  -4.86102883 
*
