30
autodE path point 0. E = -1702.395119200827 charge = 0 mult = 1 
Lu    0.13111  -0.50802   0.36757
C     0.61193   0.31185   2.74454
C     1.81608  -0.27162   2.29224
C     2.32957   0.53465   1.25633
C     1.43818   1.60555   1.05464
C     0.37678   1.46758   1.97669
H     1.56434   2.40515   0.33816
H    -0.46641   2.13543   2.08091
H    -0.02377  -0.06565   3.53094
H     2.28605  -1.15754   2.69658
H     3.24896   0.36501   0.71638
C     0.51614  -0.19466  -2.17519
C    -0.59535  -1.05764  -2.05819
C     1.24028  -2.16116  -1.27792
C     1.65142  -0.88215  -1.70424
H     0.50712   0.80019  -2.59746
C    -0.14981  -2.27091  -1.50672
H    -1.61099  -0.83070  -2.34714
H     2.66113  -0.50063  -1.69114
H     1.88617  -2.94079  -0.89899
H    -0.76610  -3.13206  -1.29644
C    -1.99763  -1.15350   1.05346
H    -2.37406  -0.74151   1.99465
H    -2.05364  -2.24652   1.15834
H    -2.75313  -0.91636   0.29263
C    -1.89263   2.28084  -1.20132
H    -2.01089   1.49015  -0.46162
H    -0.86844   2.64667  -1.19905
H    -2.56572   3.09649  -0.95251
H    -2.13670   1.89189  -2.18615
30
autodE path point 1. E = -1702.325736244823 charge = 0 mult = 1 
Lu    0.09821  -0.06792   0.05613
C     0.38039   0.97685   2.39538
C     1.30052  -0.05571   2.19273
C     2.27031   0.40359   1.28963
C     1.93055   1.70883   0.90568
C     0.76572   2.05695   1.60645
H     2.58277   2.38068   0.35536
H     0.29100   3.03140   1.57404
H    -0.44259   0.96295   3.10572
H     1.30880  -1.01447   2.69142
H     3.16211  -0.12922   1.01765
C     1.04115  -0.05552  -2.50402
C    -0.25223  -0.60473  -2.57195
C     0.99019  -1.94557  -1.24232
C     1.81590  -0.90170  -1.69488
H     1.43334   0.75091  -3.11377
C    -0.28529  -1.76252  -1.79634
H    -1.06354  -0.19624  -3.16483
H     2.87912  -0.84043  -1.55018
H     1.31368  -2.78109  -0.63704
H    -1.12780  -2.43563  -1.66767
C    -2.30899  -1.43129   1.22553
H    -2.14816  -1.44982   2.31638
H    -1.98018  -2.44076   0.89887
H    -3.42485  -1.40544   1.13284
C    -2.02173   1.44287  -0.54195
H    -2.01388   0.42813   0.03544
H    -1.19485   2.05264  -1.00556
H    -2.53636   2.07392   0.18752
H    -2.73868   1.23393  -1.35811
30
autodE path point 2. E = -1702.313346274591 charge = 0 mult = 1 
Lu    0.16540   0.04965  -0.01498
C     0.38426   0.92571   2.40135
C     1.33344  -0.08013   2.17218
C     2.28448   0.42785   1.28507
C     1.89976   1.70786   0.90571
C     0.72705   2.02788   1.60950
H     2.52781   2.39883   0.36439
H     0.24720   2.98307   1.61936
H    -0.44446   0.87235   3.08688
H     1.38349  -1.02644   2.67478
H     3.17277  -0.08824   0.97535
C     1.01235  -0.05667  -2.48394
C    -0.27943  -0.61194  -2.53108
C     1.01918  -1.94240  -1.23275
C     1.80909  -0.89321  -1.71369
H     1.38520   0.74204  -3.11232
C    -0.28052  -1.77576  -1.75052
H    -1.09824  -0.23570  -3.10946
H     2.87519  -0.79952  -1.56192
H     1.36123  -2.76937  -0.64582
H    -1.10455  -2.45856  -1.62198
C    -2.38499  -1.24832   1.16648
H    -2.18756  -1.28950   2.22988
H    -1.99296  -2.18578   0.77759
H    -3.48266  -1.33208   1.11183
C    -1.94791   1.33690  -0.53681
H    -2.13928   0.21687   0.12000
H    -1.15152   1.98502  -0.98906
H    -2.42124   1.96064   0.20607
H    -2.64774   1.17789  -1.33977
30
autodE path point 3. E = -1702.349691835737 charge = 0 mult = 1 
Lu    0.13953   0.12107  -0.05626
C     0.39844   0.86924   2.43222
C     1.35294  -0.11111   2.16982
C     2.28670   0.42584   1.28418
C     1.86555   1.70909   0.93091
C     0.69506   1.97486   1.65078
H     2.44050   2.40699   0.33071
H     0.16765   2.92674   1.65441
H    -0.41097   0.79471   3.16026
H     1.46428  -1.06219   2.68879
H     3.18157  -0.06718   0.93955
C     0.96291  -0.06875  -2.47428
C    -0.31109  -0.66413  -2.49301
C     1.02089  -1.95474  -1.21558
C     1.80016  -0.90208  -1.70617
H     1.29899   0.77027  -3.05523
C    -0.27243  -1.81899  -1.72348
H    -1.15750  -0.28094  -3.04943
H     2.85540  -0.76748  -1.55421
H     1.41036  -2.79723  -0.65372
H    -1.08257  -2.54109  -1.59717
C    -2.33997  -1.13814   1.06103
H    -2.17577  -1.13978   2.15067
H    -1.90655  -2.10811   0.75436
H    -3.40209  -1.32771   1.01103
C    -1.88982   1.43503  -0.57701
H    -2.19158  -0.08689   0.33350
H    -1.13781   2.10763  -1.02873
H    -2.45329   2.09243   0.10244
H    -2.58086   1.24223  -1.40462
30
autodE path point 4. E = -1702.372743559876 charge = 0 mult = 1 
Lu    0.04417   0.22482  -0.09385
C     0.40990   0.74043   2.48784
C     1.41058  -0.18706   2.14927
C     2.27223   0.41750   1.22664
C     1.78071   1.68519   0.94436
C     0.60544   1.87575   1.67636
H     2.25462   2.40541   0.28095
H     0.09947   2.81663   1.78626
H    -0.36507   0.60257   3.20843
H     1.63928  -1.09836   2.68626
H     3.21561   0.03501   0.89175
C     0.87057  -0.09529  -2.41256
C    -0.37750  -0.71615  -2.38387
C     1.05039  -1.96079  -1.14593
C     1.75598  -0.87549  -1.66987
H     1.14552   0.80097  -2.95951
C    -0.27097  -1.91450  -1.65408
H    -1.23765  -0.40108  -2.95881
H     2.81426  -0.69935  -1.59313
H     1.52287  -2.83042  -0.71351
H    -1.04378  -2.61844  -1.46575
C    -2.42162  -1.25832   1.13364
H    -2.25074  -1.07873   2.21865
H    -1.75140  -2.04420   0.76182
H    -3.49926  -1.59644   0.99747
C    -1.70965   1.78331  -0.84208
H    -2.26209  -0.33426   0.54784
H    -1.00353   2.50181  -1.31168
H    -2.33623   2.40562  -0.17161
H    -2.37498   1.48153  -1.67008
30
autodE path point 5. E = -1702.38202012607 charge = 0 mult = 1 
Lu    0.10991   0.25690  -0.14436
C     0.39084   0.87385   2.41318
C     1.36360  -0.09759   2.14397
C     2.28328   0.43774   1.23784
C     1.89399   1.74736   0.96251
C     0.69727   2.01352   1.65463
H     2.44724   2.44856   0.36199
H     0.22010   2.97459   1.72577
H    -0.39803   0.77994   3.15063
H     1.41851  -1.07235   2.59336
H     3.23102  -0.00962   0.95367
C     0.97762  -0.09224  -2.52648
C    -0.31658  -0.64264  -2.50562
C     1.03784  -1.93118  -1.21416
C     1.80416  -0.86951  -1.71625
H     1.29577   0.76275  -3.10134
C    -0.25997  -1.81577  -1.73491
H    -1.13319  -0.32783  -3.13312
H     2.87735  -0.75606  -1.61647
H     1.41623  -2.76669  -0.64818
H    -1.06957  -2.50998  -1.55534
C    -2.57710  -1.47394   1.27446
H    -2.20671  -1.32022   2.28079
H    -2.06672  -2.35377   0.90699
H    -3.62611  -1.51060   1.21402
C    -1.69639   1.77075  -0.81871
H    -2.23422  -0.61583   0.70267
H    -1.23756   2.60653  -1.38982
H    -2.28424   2.26659  -0.01644
H    -2.43036   1.31861  -1.51951
30
autodE path point 6. E = -1702.396647767868 charge = 0 mult = 1 
Lu    0.12042   0.42874  -0.28000
C     0.17963   1.15615   2.19054
C     1.02904   0.03068   2.11439
C     2.15013   0.38305   1.33973
C     1.99070   1.72133   0.92554
C     0.77449   2.20088   1.46118
H     2.69909   2.29131   0.34087
H     0.36543   3.19184   1.33125
H    -0.76043   1.20984   2.71996
H     0.86700  -0.92232   2.59763
H     2.99031  -0.25647   1.11492
C     1.14140  -0.04440  -2.59562
C    -0.21370  -0.43136  -2.68604
C     0.84022  -1.86120  -1.25171
C     1.79240  -0.93563  -1.71825
H     1.60958   0.76323  -3.14098
C    -0.39901  -1.54924  -1.85316
H    -0.97545   0.04688  -3.28238
H     2.84052  -0.91925  -1.45957
H     1.03333  -2.68535  -0.57946
H    -1.32717  -2.08388  -1.70900
C    -2.04571  -1.76530   1.42181
H    -2.18071  -1.68564   2.49699
H    -2.69749  -2.53854   1.02423
H    -2.30740  -0.81350   0.95936
C    -1.85870   1.60331  -0.61471
H    -1.01219  -2.03830   1.21528
H    -1.69659   2.46323  -1.28040
H    -2.29974   2.02244   0.29641
H    -2.64941   1.01746  -1.09880
