! EnGrad PBEh-3c
%output 
xyzfile=True 
end 
%scf 
maxiter 250 
end
%output
Print[P_Hirshfeld] = 1
end
% maxcore
4000
*xyz 1 1
Ir   0.43534785  -0.70931397   0.90765364 
C   -0.06707624  -2.69401648   1.74190583 
C    0.90119827  -2.08410774   2.59434032 
C    1.79489694  -2.29696357   0.48462788 
C    0.48859628  -2.84273699   0.45420290 
C    2.04510103  -1.86266407   1.81328308 
N   -0.95635790   0.02060681  -0.40975886 
C   -2.38023010   0.10256996  -0.00567499 
C   -2.87149842   1.51861070   0.25332939 
H   -3.89548631   1.52792779   0.62339472 
H   -2.83331996   2.11073617  -0.66088746 
H   -2.27397567   2.02705535   0.99831369 
C   -3.36312043  -0.60898483  -0.93146104 
H   -2.44286127  -0.39913916   0.95910745 
H   -4.34622529  -0.68095202  -0.46827940 
H   -3.49375711  -0.08448167  -1.87883176 
H   -3.03527277  -1.62317769  -1.15521792 
C   -0.67621730   0.27006798  -1.63241098 
C    0.60091875   0.21844100  -2.27217833 
H   -1.49216518   0.55074524  -2.29434411 
C    1.84714976   0.13050191  -1.72702678 
C    2.91294773   0.08636273  -2.64124731 
S    0.76381245   0.05793691  -3.97169074 
C    2.44915981  -0.04685374  -3.91912963 
H    2.27584384   1.02230957  -0.78407202 
H    3.97090271   0.06277694  -2.42071551 
H    3.04571089  -0.18220250  -4.80846580 
H   -0.94413118  -3.22707258   2.08732767 
H    0.78271661  -1.96474800   3.65792432 
H    2.98486227  -1.45577396   2.15334197 
O    1.61476972   1.64317439   0.82450215 
O   -0.02381309   1.01924832   2.02052234 
C    0.73377864   1.94757319   1.67456973 
C    0.70317900   3.32204912   2.22085834 
H    0.80607321   4.06272522   1.42916893 
H    1.53182376   3.49084797   2.90973381 
H   -0.22207948   3.49558421   2.76281741 
H    2.56360657  -2.49474582  -0.24790232 
H    0.06519765  -3.42990271  -0.34162409 
*
