! EnGrad PBEh-3c
%output 
xyzfile=True 
end 
%scf 
maxiter 250 
end
%output
Print[P_Hirshfeld] = 1
end
% maxcore
4000
*xyz 1 1
Ir   0.45314444  -0.69194711   0.98155002 
C   -0.08642590  -2.69828889   1.65441118 
C    0.82653483  -2.10977718   2.58869426 
C    1.88759848  -2.34833755   0.57500488 
C    0.60705503  -2.87668899   0.41578997 
C    2.02779103  -1.83548368   1.92189020 
N   -0.98497512  -0.00783814  -0.44585595 
C   -2.42301123   0.07447621   0.02477462 
C   -2.85770329   1.50142876   0.32364541 
H   -3.89150660   1.46654718   0.67454983 
H   -2.83383726   2.12661491  -0.56916497 
H   -2.25771391   1.94428127   1.11354477 
C   -3.37495966  -0.59588292  -0.95946678 
H   -2.44302486  -0.49703310   0.95380684 
H   -4.35181750  -0.66479641  -0.48096742 
H   -3.53034762  -0.01546170  -1.87043606 
H   -3.06771667  -1.60561255  -1.22785584 
C   -0.68698258   0.29225520  -1.66276115 
C    0.63931903   0.21540431  -2.24341729 
H   -1.52657827   0.55432349  -2.31619888 
C    1.91795097   0.35637695  -1.70568067 
C    2.90452690   0.01140213  -2.64458018 
S    0.72924818   0.04859541  -3.98241654 
C    2.42759875  -0.05674194  -3.91665773 
H    2.13667908   0.82176420  -0.80579699 
H    3.94026464   0.03372718  -2.37833211 
H    3.02985060  -0.15483825  -4.80040057 
H   -0.99559340  -3.21895668   1.93109623 
H    0.60113996  -1.92537630   3.62660208 
H    2.92251107  -1.41101604   2.34203931 
O    1.67262542   1.64512123   0.75325202 
O   -0.02542843   1.03364364   1.99921457 
C    0.82382143   1.93382798   1.57861270 
C    0.71742477   3.33560023   2.17719975 
H    0.80945064   4.08611045   1.38803848 
H    1.56839450   3.50607355   2.84558715 
H   -0.19695786   3.51411226   2.74024909 
H    2.67711155  -2.37426860  -0.15776432 
H    0.21231546  -3.40685965  -0.43838320 
*
