! EnGrad PBEh-3c
%output 
xyzfile=True 
end 
%scf 
maxiter 250 
end
%output
Print[P_Hirshfeld] = 1
end
% maxcore
4000
*xyz 1 1
Ir   0.45247889  -0.71325735   1.01367767 
C   -0.09853657  -2.69775548   1.57630290 
C    0.75725359  -2.11926271   2.59587140 
C    1.98800097  -2.37273330   0.66265096 
C    0.70939794  -2.90551250   0.39630888 
C    2.01647483  -1.82411814   2.01554785 
N   -0.99471781  -0.02704337  -0.44841034 
C   -2.42272562   0.04136795   0.02578961 
C   -2.84737490   1.47302901   0.39308084 
H   -3.88446314   1.41652250   0.72069986 
H   -2.82925239   2.14324460  -0.48162856 
H   -2.23982158   1.87472700   1.21286454 
C   -3.39304082  -0.58044567  -0.97882292 
H   -2.44281342  -0.58346700   0.94386779 
H   -4.35889240  -0.65388735  -0.49411749 
H   -3.55960349   0.04560247  -1.86208763 
H   -3.09426575  -1.58800776  -1.29592408 
C   -0.69330306   0.30461843  -1.66237374 
C    0.63601172   0.26460820  -2.25083523 
H   -1.53017354   0.55472790  -2.33860741 
C    1.91199807   0.45804787  -1.79967223 
C    2.89881021   0.02041414  -2.65844670 
S    0.71318368   0.01923277  -3.95988170 
C    2.40519911  -0.09447702  -3.92311658 
H    2.03042406   0.65589718  -0.71029727 
H    3.94531426   0.00302571  -2.34765150 
H    3.00744619  -0.14002821  -4.80696919 
H   -1.05958586  -3.16769152   1.77408198 
H    0.43469857  -1.87680193   3.60267914 
H    2.87032460  -1.36398324   2.51997872 
O    1.69062523   1.61213300   0.72742114 
O    0.01413787   1.06386282   1.96992180 
C    0.85939322   1.93094129   1.52982885 
C    0.73963953   3.32628741   2.12455396 
H    0.80836868   4.09531792   1.35198650 
H    1.59372747   3.51078756   2.78229714 
H   -0.16872317   3.51892837   2.71234614 
H    2.77740517  -2.24424566  -0.08757518 
H    0.35113785  -3.36505723  -0.53754284 
*
