! EnGrad PBEh-3c
%output 
xyzfile=True 
end 
%scf 
maxiter 250 
end
%output
Print[P_Hirshfeld] = 1
end
% maxcore
4000
*xyz 1 1
Ir   0.45293776  -0.69856478   0.99152693 
C   -0.09018674  -2.69812324   1.63015547 
C    0.80502026  -2.11272281   2.59092304 
C    1.91877743  -2.35591339   0.60222245 
C    0.63883655  -2.88563983   0.40974032 
C    2.02427690  -1.83195423   1.95097460 
N   -0.98800061  -0.01380212  -0.44664919 
C   -2.42292254   0.06419479   0.02508981 
C   -2.85449592   1.49260952   0.34520786 
H   -3.88931933   1.45101254   0.68888124 
H   -2.83241347   2.13177908  -0.54198145 
H   -2.25215764   1.92268192   1.14438749 
C   -3.38057458  -0.59108904  -0.96547762 
H   -2.44295920  -0.52387425   0.95072037 
H   -4.35401453  -0.66140871  -0.48505103 
H   -3.53943272   0.00350114  -1.86784355 
H   -3.07596121  -1.60014556  -1.24899372 
C   -0.68894534   0.29609447  -1.66264085 
C    0.63829198   0.23068406  -2.24572086 
H   -1.52769474   0.55444908  -2.32315761 
C    1.91610236   0.38794979  -1.73486877 
C    2.90275164   0.01420072  -2.64888629 
S    0.72425952   0.03947715  -3.97541858 
C    2.42064278  -0.06846018  -3.91866346 
H    2.10368269   0.77025593  -0.77614055 
H    3.94183274   0.02419316  -2.36880457 
H    3.02289314  -0.15023914  -4.80244038 
H   -1.01546559  -3.20303682   1.88233710 
H    0.54945333  -1.91029204   3.61917307 
H    2.90630510  -1.39641050   2.39729653 
O    1.67821507   1.63487708   0.74523051 
O   -0.01314153   1.04302789   1.99011801 
C    0.83486788   1.93293155   1.56346339 
C    0.72432333   3.33270823   2.16085115 
H    0.80911464   4.08896973   1.37684292 
H    1.57626139   3.50753743   2.82593310 
H   -0.18818988   3.51560785   2.73158412 
H    2.70825668  -2.33389134  -0.13596781 
H    0.25542530  -3.39387835  -0.46917619 
*
