! EnGrad PBEh-3c
%output 
xyzfile=True 
end 
%scf 
maxiter 250 
end
%output
Print[P_Hirshfeld] = 1
end
% maxcore
4000
*xyz 1 1
Ir   0.45171828  -0.72909151   0.99282779 
C   -0.08400824  -2.69610059   1.56072918 
C    0.73507852  -2.11393633   2.59422108 
C    1.99900195  -2.35310389   0.68519176 
C    0.73286681  -2.90196949   0.39509580 
C    2.00981711  -1.82949218   2.03679873 
N   -0.98318550  -0.02552208  -0.44801615 
C   -2.41173914   0.03030324   0.02557808 
C   -2.84177380   1.45770192   0.40839931 
H   -3.88257829   1.40711153   0.73607214 
H   -2.82327511   2.14182004  -0.45060331 
H   -2.24025239   1.85615788   1.22937735 
C   -3.39506906  -0.57510220  -0.98465629 
H   -2.44376068  -0.59505656   0.92848780 
H   -4.36569403  -0.65426677  -0.49577680 
H   -3.56368927   0.05863153  -1.85830915 
H   -3.10205869  -1.57693056  -1.31250681 
C   -0.69522677   0.29831587  -1.64475183 
C    0.62530421   0.29834924  -2.26676690 
H   -1.52237453   0.55342998  -2.33918073 
C    1.86899051   0.42488434  -1.79344270 
C    2.92245255   0.06144358  -2.65741046 
S    0.71019502   0.00768756  -3.96445086 
C    2.39944290  -0.10726330  -3.92341582 
H    2.02121690   0.62281811  -0.68651060 
H    3.93826866  -0.00570020  -2.35388810 
H    3.00167190  -0.14747493  -4.82155281 
H   -1.07855771  -3.14461058   1.72925019 
H    0.39343428  -1.86643515   3.59743907 
H    2.84907114  -1.35669163   2.55989700 
O    1.76513967   1.57894478   0.66246817 
O    0.02647461   1.05361982   1.96328732 
C    0.77793316   1.96787857   1.60751088 
C    0.75074950   3.32382148   2.10625568 
H    0.80782062   4.09384267   1.34067425 
H    1.59964161   3.50922328   2.76576116 
H   -0.15632407   3.50937534   2.69836991 
H    2.79961145  -2.21383480  -0.06239821 
H    0.39622634  -3.34509857  -0.55127632 
*
