! EnGrad PBEh-3c
%output 
xyzfile=True 
end 
%scf 
maxiter 250 
end
%output
Print[P_Hirshfeld] = 1
end
% maxcore
4000
*xyz 1 1
Ir   0.45261025  -0.70676320   0.99187629 
C   -0.08852741  -2.69758003   1.61150998 
C    0.78623634  -2.11304872   2.59180878 
C    1.94032295  -2.35515886   0.62450513 
C    0.66408981  -2.89002541   0.40580731 
C    2.02039350  -1.83129301   1.97402398 
N   -0.98670744  -0.01694970  -0.44701631 
C   -2.41991907   0.05509269   0.02522094 
C   -2.85107920   1.48323455   0.36217888 
H   -3.88750892   1.43922225   0.70155507 
H   -2.82995923   2.13447574  -0.51744046 
H   -2.24896030   1.90481588   1.16721281 
C   -3.38446729  -0.58679553  -0.97062835 
H   -2.44317445  -0.54299134   0.94474948 
H   -4.35715124  -0.65949064  -0.48793160 
H   -3.54594719   0.01830725  -1.86528294 
H   -3.08297009  -1.59391082  -1.26605113 
C   -0.69063232   0.29669106  -1.65783648 
C    0.63480392   0.24885658  -2.25137309 
H   -1.52626592   0.55417538  -2.32746087 
C    1.90344975   0.39786912  -1.75059969 
C    2.90804262   0.02688851  -2.65117558 
S    0.72048228   0.03093957  -3.97247303 
C    2.41494923  -0.07888135  -3.91993978 
H    2.08153525   0.73065926  -0.75206906 
H    3.94087555   0.01616484  -2.36479852 
H    3.01719385  -0.14949677  -4.80757332 
H   -1.03240994  -3.18734556   1.84122327 
H    0.50755203  -1.89851360   3.61333607 
H    2.89093405  -1.38574339   2.44096537 
O    1.70156000   1.61985561   0.72300342 
O   -0.00250201   1.04587252   1.98291222 
C    0.81957719   1.94231710   1.57529301 
C    0.73142048   3.33032156   2.14618871 
H    0.80876711   4.09027843   1.36712927 
H    1.58254051   3.50799019   2.80977301 
H   -0.17963183   3.51393402   2.72266394 
H    2.73279140  -2.30164832  -0.11620958 
H    0.29323957  -3.38077779  -0.49122543 
*
