! EnGrad PBEh-3c
%output 
xyzfile=True 
end 
%scf 
maxiter 250 
end
%output
Print[P_Hirshfeld] = 1
end
% maxcore
4000
*xyz 1 1
Ir   0.46162120  -0.68718989   0.94290472 
C   -0.09011447  -2.70756691   1.70604626 
C    0.86297887  -2.09996449   2.56964584 
C    1.82541407  -2.32988461   0.51350222 
C    0.56477560  -2.85256527   0.42276774 
C    2.03971153  -1.83636666   1.89595974 
N   -0.97399163   0.00215821  -0.43233304 
C   -2.42230713   0.08686728   0.03286315 
C   -2.85581478   1.51096131   0.28286585 
H   -3.89952890   1.49307339   0.65610635 
H   -2.83456510   2.11403085  -0.60448930 
H   -2.27128986   1.97697708   1.06058192 
C   -3.35964446  -0.60501045  -0.95566121 
H   -2.44375100  -0.44553381   0.94492469 
H   -4.35613915  -0.67185923  -0.47154553 
H   -3.51505688  -0.04715060  -1.87250911 
H   -3.05703232  -1.60728506  -1.19284117 
C   -0.69481597   0.28876132  -1.66855176 
C    0.59285863   0.19173099  -2.27639283 
H   -1.50963578   0.55022822  -2.29616547 
C    1.96103762   0.30064773  -1.56923569 
C    2.88423182   0.01837578  -2.65840192 
S    0.73390131   0.06463500  -4.01112598 
C    2.45018912  -0.03731409  -3.91252502 
H    2.19199858   0.89929811  -0.87090164 
H    3.95162277   0.04768525  -2.39195056 
H    3.04131542  -0.16591207  -4.80295997 
H   -0.95433171  -3.24270524   2.00460461 
H    0.68216405  -1.95355463   3.64432132 
H    2.93369673  -1.44190020   2.24684203 
O    1.62665066   1.67305259   0.80460220 
O   -0.06547106   0.99537443   2.02680037 
C    0.86111457   1.94817666   1.55659639 
C    0.69661772   3.35024481   2.21265532 
H    0.81104937   4.07890140   1.40400729 
H    1.55651532   3.50297648   2.87591382 
H   -0.19995198   3.50774949   2.74699007 
H    2.62409246  -2.44250747  -0.18146237 
H    0.14933068  -3.42589362  -0.38157409 
*
