! EnGrad PBEh-3c
%output 
xyzfile=True 
end 
%scf 
maxiter 250 
end
%output
Print[P_Hirshfeld] = 1
end
% maxcore
4000
*xyz 1 1
Ir   0.44566701  -0.70062448   0.92149892 
C   -0.07612477  -2.69933857   1.72782156 
C    0.88618715  -2.09033566   2.58464127 
C    1.80688290  -2.30989370   0.49596862 
C    0.51851660  -2.84659716   0.44185637 
C    2.04298424  -1.85233546   1.84575531 
N   -0.96328375   0.01336091  -0.41862514 
C   -2.39675635   0.09640255   0.00946132 
C   -2.86533849   1.51560632   0.26493018 
H   -3.89707408   1.51423832   0.63624260 
H   -2.83380901   2.11203020  -0.63873642 
H   -2.27292078   2.00738652   1.02277027 
C   -3.36175520  -0.60742384  -0.94096594 
H   -2.44321072  -0.41736120   0.95353700 
H   -4.35011907  -0.67738072  -0.46956221 
H   -3.50212284  -0.06981946  -1.87634846 
H   -3.04381909  -1.61693568  -1.16999489 
C   -0.68352215   0.27741001  -1.64660569 
C    0.59775304   0.20795033  -2.27383363 
H   -1.49902696   0.55054217  -2.29505947 
C    1.89188055   0.19732867  -1.66505248 
C    2.90166922   0.05966006  -2.64798499 
S    0.75206450   0.06056766  -3.98717939 
C    2.44956408  -0.04310693  -3.91653559 
H    2.24291263   0.97399538  -0.81817537 
H    3.96333029   0.05684950  -2.40941774 
H    3.04398452  -0.17580424  -4.80630332 
H   -0.94813756  -3.23321249   2.05483722 
H    0.74322341  -1.96035167   3.65258158 
H    2.96476641  -1.45032488   2.19006522 
O    1.61943610   1.65490940   0.81668621 
O   -0.04017475   1.00987157   2.02298811 
C    0.78379132   1.94781021   1.62823432 
C    0.70060198   3.33312330   2.21763651 
H    0.80802765   4.06907860   1.41928640 
H    1.54152166   3.49561159   2.89645061 
H   -0.21338864   3.50036226   2.75660104 
H    2.58736311  -2.47422860  -0.22180725 
H    0.09824188  -3.42832809  -0.35731492 
*
