! EnGrad PBEh-3c
%output 
xyzfile=True 
end 
%scf 
maxiter 250 
end
%output
Print[P_Hirshfeld] = 1
end
% maxcore
4000
*xyz 1 1
Ir   0.46358305  -0.68355220   0.95776533 
C   -0.08487703  -2.70953831   1.66554681 
C    0.82865602  -2.10731659   2.57651107 
C    1.85912153  -2.33529509   0.55598500 
C    0.59886031  -2.86373138   0.41242094 
C    2.02089227  -1.83217467   1.91919732 
N   -0.98291043  -0.00670218  -0.44716325 
C   -2.43466714   0.07970979   0.03471235 
C   -2.85752265   1.49985513   0.31344686 
H   -3.89688599   1.47142928   0.67646803 
H   -2.83360487   2.11829000  -0.57038851 
H   -2.26802691   1.94393066   1.10245414 
C   -3.36985555  -0.59695270  -0.96084550 
H   -2.44579982  -0.48086227   0.94481657 
H   -4.35821106  -0.66649458  -0.47763600 
H   -3.52822426  -0.02070643  -1.86982951 
H   -3.06950766  -1.60034361  -1.21952516 
C   -0.70437633   0.29117972  -1.67274413 
C    0.63148425   0.18681952  -2.25453722 
H   -1.52720578   0.55243531  -2.30393256 
C    1.96165365   0.37408882  -1.55381263 
C    2.88649070  -0.00736969  -2.63263981 
S    0.72636542   0.06876321  -4.01425597 
C    2.43605096  -0.03709692  -3.91813995 
H    2.14895277   0.83574512  -0.90895561 
H    3.93512961   0.03503257  -2.37951484 
H    3.04030522  -0.15558767  -4.79827690 
H   -0.96853574  -3.25634907   1.95042719 
H    0.61469881  -1.94806207   3.62743740 
H    2.91087971  -1.42715235   2.31582418 
O    1.69116730   1.67786511   0.73962650 
O   -0.04076170   1.01544342   2.00028792 
C    0.83526196   1.94788218   1.57097291 
C    0.71357920   3.35459260   2.18835186 
H    0.81328389   4.09167752   1.38972568 
H    1.57103912   3.51250767   2.85288947 
H   -0.19365604   3.51351542   2.73969603 
H    2.66875185  -2.40940548  -0.14074087 
H    0.20754933  -3.42325183  -0.41021866 
*
