! EnGrad PBEh-3c
%output 
xyzfile=True 
end 
%scf 
maxiter 250 
end
%output
Print[P_Hirshfeld] = 1
end
% maxcore
4000
*xyz 1 1
Ir   0.45155849  -0.69501047   0.93342469 
C   -0.07900285  -2.70269263   1.70734327 
C    0.86726874  -2.09591963   2.58196775 
C    1.82406094  -2.31824663   0.51570427 
C    0.54493665  -2.85223154   0.43217689 
C    2.03571957  -1.84570583   1.86990582 
N   -0.96973775   0.00676341  -0.42800955 
C   -2.40922285   0.09091334   0.01776481 
C   -2.86276835   1.51042673   0.28088430 
H   -3.89701223   1.50016109   0.64947024 
H   -2.83374188   2.11408866  -0.61626104 
H   -2.27131149   1.98651983   1.04897334 
C   -3.36441890  -0.60398053  -0.94750309 
H   -2.44406211  -0.43824276   0.95066940 
H   -4.35278002  -0.67380095  -0.47221718 
H   -3.51070598  -0.05366924  -1.87420478 
H   -3.05226646  -1.61147958  -1.18628231 
C   -0.69037979   0.28193801  -1.65520100 
C    0.60884514   0.20100172  -2.26748824 
H   -1.50829322   0.55116471  -2.29797728 
C    1.91482458   0.25545409  -1.62847261 
C    2.89667795   0.03761814  -2.64293891 
S    0.74361367   0.06326267  -3.99608320 
C    2.44512046  -0.04113061  -3.91706316 
H    2.21201508   0.92853347  -0.84802734 
H    3.95405684   0.04967527  -2.39958454 
H    3.04277463  -0.16915627  -4.80366393 
H   -0.95484525  -3.24082067   2.02050325 
H    0.70095966  -1.95631039   3.64431323 
H    2.94704642  -1.44270488   2.23141952 
O    1.64302403   1.66245811   0.79134606 
O   -0.04036776   1.01170381   2.01552343 
C    0.80071681   1.94783387   1.60940460 
C    0.70486938   3.34018322   2.20800661 
H    0.80975611   4.07650998   1.40956572 
H    1.55122812   3.50116766   2.88212606 
H   -0.20689982   3.50468752   2.75104203 
H    2.61412681  -2.45291230  -0.19514956 
H    0.13418631  -3.42665883  -0.37471167 
*
