! EnGrad PBEh-3c
%output 
xyzfile=True 
end 
%scf 
maxiter 250 
end
%output
Print[P_Hirshfeld] = 1
end
% maxcore
4000
*xyz 1 1
Ir   0.45653444  -0.68230858   0.97546957 
C   -0.08653995  -2.69991012   1.67617733 
C    0.84794293  -2.10702937   2.58709722 
C    1.86027431  -2.34442834   0.54690300 
C    0.58078248  -2.86847557   0.41985426 
C    2.03206839  -1.83721712   1.90008697 
N   -0.98228779  -0.00391261  -0.44572026 
C   -2.42649863   0.08542170   0.02643800 
C   -2.86002528   1.50926784   0.30417303 
H   -3.89262406   1.47971748   0.66142692 
H   -2.83499399   2.12217642  -0.59332736 
H   -2.26227111   1.96369457   1.08625792 
C   -3.36876664  -0.60025413  -0.95409565 
H   -2.44268311  -0.47389589   0.95710372 
H   -4.34912427  -0.66762803  -0.47715778 
H   -3.52232138  -0.03211166  -1.87324341 
H   -3.06032988  -1.61129680  -1.20957675 
C   -0.68632935   0.28993023  -1.66898934 
C    0.65221491   0.20008426  -2.22949859 
H   -1.52848363   0.55495157  -2.30954017 
C    1.93965315   0.35122380  -1.66785279 
C    2.88970186   0.00973790  -2.62353778 
S    0.72920501   0.05484145  -3.99843368 
C    2.43146587  -0.04491462  -3.91287248 
H    2.15453990   0.84384758  -0.85623231 
H    3.94250079   0.04271273  -2.38746515 
H    3.03799112  -0.16009834  -4.80559975 
H   -0.97863620  -3.23065374   1.97380503 
H    0.64684651  -1.93747220   3.63290777 
H    2.93681019  -1.42370591   2.29294354 
O    1.66030066   1.65715065   0.76836863 
O   -0.04582305   1.02017760   2.01319292 
C    0.82991803   1.92990764   1.57880495 
C    0.71016083   3.34006208   2.19330138 
H    0.80971945   4.08316796   1.39723984 
H    1.56154887   3.50402946   2.86287173 
H   -0.20571688   3.51316967   2.74853495 
H    2.64786653  -2.40842520  -0.17638633 
H    0.17413289  -3.41748078  -0.41130774 
*
