! EnGrad PBEh-3c
%output 
xyzfile=True 
end 
%scf 
maxiter 250 
end
%output
Print[P_Hirshfeld] = 1
end
% maxcore
4000
*xyz 1 1
Ir   0.45324064  -0.69071651   0.94763825 
C   -0.08155081  -2.70175198   1.69680741 
C    0.86073552  -2.09967536   2.58370181 
C    1.83630311  -2.32709754   0.52625122 
C    0.55705458  -2.85772295   0.42801114 
C    2.03448526  -1.84283616   1.88010877 
N   -0.97398038   0.00315431  -0.43399677 
C   -2.41506305   0.08905685   0.02069684 
C   -2.86184104   1.51003496   0.28875721 
H   -3.89552878   1.49324999   0.65351228 
H   -2.83416516   2.11682278  -0.60850815 
H   -2.26825533   1.97880360   1.06157764 
C   -3.36588868  -0.60272080  -0.94973175 
H   -2.44359593  -0.45029554   0.95284456 
H   -4.35154417  -0.67171415  -0.47388738 
H   -3.51463264  -0.04638155  -1.87387978 
H   -3.05499236  -1.61141779  -1.19415716 
C   -0.68901051   0.28463984  -1.65986224 
C    0.62350659   0.20069157  -2.25464558 
H   -1.51511873   0.55244488  -2.30188619 
C    1.92321805   0.28782969  -1.64178535 
C    2.89431963   0.02819304  -2.63638023 
S    0.73874273   0.06041582  -3.99687779 
C    2.44050443  -0.04240982  -3.91564648 
H    2.19258520   0.89990482  -0.85080109 
H    3.95015024   0.04732153  -2.39548750 
H    3.04115753  -0.16609417  -4.80431835 
H   -0.96288794  -3.23738367   2.00471660 
H    0.68266634  -1.94994201   3.64045753 
H    2.94358599  -1.43628215   2.25221814 
O    1.64886451   1.66066388   0.78357838 
O   -0.04221196   1.01456843   2.01473559 
C    0.81058848   1.94177379   1.59906018 
C    0.70665819   3.34014227   2.20303540 
H    0.80974371   4.07876076   1.40539887 
H    1.55471712   3.50213511   2.87561700 
H   -0.20649992   3.50755497   2.75019450 
H    2.62553275  -2.43787314  -0.18880652 
H    0.14769052  -3.42355613  -0.38708322 
*
