! EnGrad PBEh-3c
%output 
xyzfile=True 
end 
%scf 
maxiter 250 
end
%output
Print[P_Hirshfeld] = 1
end
% maxcore
4000
*xyz 1 1
Ir   0.45351808  -0.68617697   1.00232335 
C   -0.09055459  -2.69594236   1.64751826 
C    0.82210958  -2.11582114   2.58536113 
C    1.89479134  -2.36216336   0.58426533 
C    0.62175825  -2.88180034   0.41133039 
C    2.03164832  -1.83031109   1.93392547 
N   -0.99080069  -0.01094703  -0.45507069 
C   -2.43034858   0.07193475   0.03131292 
C   -2.85555123   1.50454375   0.32903626 
H   -3.89053991   1.45994202   0.67706510 
H   -2.83502095   2.12956596  -0.56375352 
H   -2.25396229   1.93834566   1.12493642 
C   -3.37490591  -0.59579319  -0.96315255 
H   -2.44207510  -0.50811514   0.95660655 
H   -4.34988128  -0.66247932  -0.48211124 
H   -3.53401928  -0.00956677  -1.87007333 
H   -3.06972452  -1.60642108  -1.23435718 
C   -0.68088618   0.29498216  -1.66814388 
C    0.65744438   0.21620478  -2.22390225 
H   -1.53535991   0.55604414  -2.32123182 
C    1.91695476   0.36927224  -1.76363089 
C    2.90165403   0.00024047  -2.64297860 
S    0.72461543   0.04520326  -3.97902534 
C    2.42440010  -0.05718445  -3.90520416 
H    2.12493164   0.81264965  -0.77990156 
H    3.93498246   0.03254881  -2.37425096 
H    3.02837966  -0.15156085  -4.80073692 
H   -1.00379573  -3.21389529   1.91820333 
H    0.58606618  -1.91744092   3.62559506 
H    2.91994906  -1.40518715   2.35946148 
O    1.69664442   1.63481048   0.72642622 
O   -0.03219839   1.03173002   2.00072389 
C    0.81813626   1.93898008   1.58688979 
C    0.71754701   3.33238784   2.17291531 
H    0.80918963   4.08848549   1.38439311 
H    1.57151895   3.50661931   2.84067546 
H   -0.19769591   3.51759398   2.74045979 
H    2.68761309  -2.35943304  -0.15625779 
H    0.22101361  -3.40449165  -0.45164749 
*
