! EnGrad PBEh-3c
%output 
xyzfile=True 
end 
%scf 
maxiter 250 
end
%output
Print[P_Hirshfeld] = 1
end
% maxcore
4000
*xyz 1 1
Ir   0.45333098  -0.68923832   0.96544504 
C   -0.08448266  -2.69986023   1.68075767 
C    0.84815798  -2.10493281   2.58424212 
C    1.85534830  -2.33851582   0.54514202 
C    0.57812366  -2.86556313   0.42257949 
C    2.03356148  -1.83875769   1.89763279 
N   -0.97945748  -0.00143743  -0.44085895 
C   -2.42004039   0.08348148   0.02415369 
C   -2.85979292   1.50824689   0.30187305 
H   -3.89390428   1.48240411   0.66118165 
H   -2.83444383   2.12097227  -0.59393496 
H   -2.26360117   1.96562951   1.08220880 
C   -3.36882491  -0.60046500  -0.95410189 
H   -2.44310071  -0.46912300   0.95406956 
H   -4.35100269  -0.66870706  -0.47656527 
H   -3.52094540  -0.03439377  -1.87264031 
H   -3.05978950  -1.60979074  -1.20724726 
C   -0.68636503   0.28800755  -1.66255894 
C    0.63455755   0.20574304  -2.24463481 
H   -1.52170974   0.55361689  -2.30818559 
C    1.92117857   0.31434936  -1.68146121 
C    2.89670789   0.01909100  -2.63852882 
S    0.73414254   0.05546224  -3.99106460 
C    2.43526047  -0.04722080  -3.91224620 
H    2.17055556   0.87149243  -0.82771449 
H    3.94521124   0.04251118  -2.38857237 
H    3.03699675  -0.16136177  -4.80315215 
H   -0.97620851  -3.22973528   1.97654578 
H    0.65121099  -1.93935887   3.63561795 
H    2.93588924  -1.42615686   2.28713917 
O    1.66442281   1.65224539   0.76496825 
O   -0.03895129   1.02015666   2.01017304 
C    0.81304622   1.94086409   1.59509721 
C    0.71020385   3.33761724   2.19322757 
H    0.80956329   4.08192737   1.39855889 
H    1.56018820   3.50359527   2.86423919 
H   -0.20363312   3.51082392   2.74702464 
H    2.64574761  -2.41233114  -0.17820786 
H    0.17156630  -3.41734827  -0.40810691 
*
