! EnGrad PBEh-3c
%output 
xyzfile=True 
end 
%scf 
maxiter 250 
end
%output
Print[P_Hirshfeld] = 1
end
% maxcore
4000
*xyz 1 1
Ir   0.45275089  -0.69766155   1.01552508 
C   -0.09052536  -2.69497400   1.59883064 
C    0.78091865  -2.11999686   2.59808648 
C    1.95563345  -2.36905746   0.63800355 
C    0.66808861  -2.90016010   0.40146682 
C    2.01561769  -1.82857682   1.97306363 
N   -0.99661513  -0.02134107  -0.45639762 
C   -2.42927853   0.05547870   0.02608451 
C   -2.85329499   1.48704525   0.36957636 
H   -3.88644845   1.43309542   0.70275132 
H   -2.83255763   2.13851861  -0.51691021 
H   -2.24529416   1.89924503   1.17965112 
C   -3.38790153  -0.58621657  -0.97078455 
H   -2.44286484  -0.55591222   0.95325262 
H   -4.35353641  -0.65654649  -0.49025418 
H   -3.55018251   0.02447737  -1.86578598 
H   -3.08443982  -1.59679824  -1.27133169 
C   -0.68828538   0.30121605  -1.66318773 
C    0.64936384   0.23578570  -2.24084883 
H   -1.53684889   0.55581414  -2.33310370 
C    1.91114202   0.44503831  -1.75677403 
C    2.92102188  -0.00481831  -2.65734614 
S    0.71892305   0.03410914  -3.96417260 
C    2.41143560  -0.07682774  -3.92596427 
H    2.06521327   0.71685758  -0.75955987 
H    3.92982928   0.01519647  -2.35672927 
H    3.01477509  -0.14107623  -4.79459583 
H   -1.03648776  -3.19621814   1.83521589 
H    0.49551016  -1.89587869   3.60758222 
H    2.89428849  -1.37907497   2.45785659 
O    1.68992965   1.63009212   0.72853547 
O    0.00309938   1.06209575   1.97609660 
C    0.84655281   1.91898461   1.54383700 
C    0.73265801   3.33134514   2.14338747 
H    0.80921298   4.09493508   1.36584465 
H    1.58570651   3.51130172   2.80623883 
H   -0.18287575   3.52104936   2.72595541 
H    2.74327687  -2.29397190  -0.11463663 
H    0.29827987  -3.38473288  -0.50225403 
*
