! EnGrad PBEh-3c
%output 
xyzfile=True 
end 
%scf 
maxiter 250 
end
%output
Print[P_Hirshfeld] = 1
end
% maxcore
4000
*xyz 0 1
C   -1.29896272   0.09726097  -0.95500394 
C   -2.31146583  -0.84189041  -1.10569483 
C   -2.18034509  -2.11471302  -0.57275551 
C   -1.03350302  -2.44718020   0.13364690 
C   -0.16352311  -0.25865039  -0.24617352 
C   -0.02328666  -1.51521608   0.31982644 
H   -1.42325791   1.05952776  -1.43698389 
H   -3.19734181  -0.58558549  -1.67382845 
H   -2.96348073  -2.84670564  -0.71429784 
H    0.85800530  -1.81597323   0.87224249 
H   -0.92196458  -3.44425804   0.54149042 
Pd   1.48152838   0.98593525  -0.27805985 
O    3.59227475   1.55639741  -0.59539973 
O    2.82609566  -0.48369868  -0.73684198 
O    0.24183203   2.58077873   0.18966299 
C   -0.27892954   2.67025959   1.28122307 
O    0.04560444   1.85480614   2.23773591 
H   -0.82188493   1.76411085   3.08053383 
C    3.77853524   0.34445349  -0.79164955 
H    4.77716941  -0.04195148  -1.04418370 
H   -0.98309015   3.48228247   1.49452904 
*
