! EnGrad PBEh-3c
%output 
xyzfile=True 
end 
%scf 
maxiter 250 
end
%output
Print[P_Hirshfeld] = 1
end
% maxcore
4000
*xyz 0 1
C   -1.30011265   0.11075998  -0.90441884 
C   -2.28200219  -0.85023892  -1.12687921 
C   -2.13012922  -2.13623133  -0.62597477 
C   -1.01258939  -2.43611176   0.14533566 
C   -0.14838660  -0.20578561  -0.19075417 
C   -0.03786810  -1.47500210   0.37279121 
H   -1.43395307   1.09487157  -1.33310145 
H   -3.15010090  -0.60266764  -1.73035943 
H   -2.86183254  -2.90652841  -0.85687946 
H    0.82793686  -1.73971810   0.96166491 
H   -0.87819872  -3.43987152   0.53611608 
Pd   1.42000243   0.95272396  -0.23811428 
O    3.54933206   1.52812234  -0.67238602 
O    2.75225106  -0.50782299  -0.68105181 
O    0.28992709   2.64401189   0.24959823 
C   -0.27750909   2.69220029   1.31502080 
O   -0.07864931   1.79875027   2.25564241 
H   -0.73976298   1.83846279   2.94597617 
C    3.71101238   0.30699811  -0.83294123 
H    4.69478172  -0.10546953  -1.10799711 
H   -0.97976568   3.50409011   1.54582456 
*
