! EnGrad PBEh-3c
%output 
xyzfile=True 
end 
%scf 
maxiter 250 
end
%output
Print[P_Hirshfeld] = 1
end
% maxcore
4000
*xyz 0 1
C   -1.30128042   0.11278391  -0.89940733 
C   -2.27867956  -0.85168153  -1.12970212 
C   -2.12293883  -2.13726157  -0.63212113 
C   -1.00967928  -2.43644069   0.14409979 
C   -0.15026876  -0.20172804  -0.18296090 
C   -0.03900367  -1.47269721   0.37807515 
H   -1.43766245   1.09729371  -1.32744948 
H   -3.14462190  -0.60482321  -1.73383568 
H   -2.85086573  -2.90862692  -0.86738470 
H    0.82488670  -1.73775753   0.97015575 
H   -0.87529172  -3.43860331   0.53489500 
Pd   1.41499653   0.95318932  -0.23675609 
O    3.54703381   1.52452164  -0.67798206 
O    2.74692418  -0.51018517  -0.67704462 
O    0.29204450   2.64831031   0.24996624 
C   -0.27899992   2.69213133   1.32047978 
O   -0.08237864   1.80092334   2.25088784 
H   -0.74186829   1.83918071   2.94954033 
C    3.70559504   0.30336994  -0.83648578 
H    4.68742830  -0.11098925  -1.11387523 
H   -0.97555244   3.50855058   1.54637524 
*
