! EnGrad PBEh-3c
%output 
xyzfile=True 
end 
%scf 
maxiter 250 
end
%output
Print[P_Hirshfeld] = 1
end
% maxcore
4000
*xyz 0 1
C   -1.30144961   0.10487114  -0.91194211 
C   -2.29030414  -0.85473398  -1.12133734 
C   -2.14369804  -2.13559524  -0.61699158 
C   -1.02439517  -2.43772314   0.14405875 
C   -0.14385569  -0.21130649  -0.20352547 
C   -0.03960966  -1.48147227   0.36388597 
H   -1.42883964   1.09207925  -1.34657990 
H   -3.15563907  -0.59994426  -1.72092593 
H   -2.87702459  -2.89613202  -0.83434151 
H    0.83573807  -1.74604075   0.94912600 
H   -0.88284806  -3.43875835   0.53408849 
Pd   1.42634338   0.95080605  -0.24332689 
O    3.55694486   1.53399288  -0.66354164 
O    2.76507113  -0.50251250  -0.68854110 
O    0.28344858   2.62890560   0.25505415 
C   -0.28056666   2.69596816   1.31525379 
O   -0.06453251   1.80375276   2.26294776 
H   -0.73580503   1.82945209   2.93207246 
C    3.72380120   0.31401609  -0.82556776 
H    4.70801589  -0.09469836  -1.09690292 
H   -0.98341794   3.49849142   1.53800961 
*
