! EnGrad PBEh-3c
%output 
xyzfile=True 
end 
%scf 
maxiter 250 
end
%output
Print[P_Hirshfeld] = 1
end
% maxcore
4000
*xyz 0 1
C   -1.31210591   0.08984934  -0.94320524 
C   -2.31341430  -0.84723757  -1.11306091 
C   -2.17009679  -2.11801305  -0.58377307 
C   -1.03299504  -2.45190557   0.13625299 
C   -0.11570612  -0.20265388  -0.22852463 
C   -0.03739014  -1.51681423   0.33270440 
H   -1.42729846   1.06613883  -1.41955903 
H   -3.18972007  -0.59146530  -1.68462102 
H   -2.94589690  -2.85666619  -0.73889737 
H    0.85076727  -1.80287280   0.89316626 
H   -0.91341687  -3.44727222   0.53401538 
Pd   1.43766384   0.94660341  -0.27422228 
O    3.59282046   1.55714283  -0.61190154 
O    2.81178230  -0.48097372  -0.72089709 
O    0.24705093   2.59871365   0.19202445 
C   -0.26683284   2.68722479   1.27040464 
O   -0.08128750   1.83485118   2.38327751 
H   -0.69978967   1.76689511   2.94036817 
C    3.77652300   0.33575521  -0.80661893 
H    4.76809615  -0.05323944  -1.05406997 
H   -0.98024084   3.48802862   1.49751942 
*
