! EnGrad PBEh-3c
%output 
xyzfile=True 
end 
%scf 
maxiter 250 
end
%output
Print[P_Hirshfeld] = 1
end
% maxcore
4000
*xyz 0 1
C   -1.30229343   0.10222312  -0.91465695 
C   -2.29438905  -0.85640895  -1.11923892 
C   -2.14928736  -2.13430420  -0.61268739 
C   -1.02899529  -2.43910280   0.14313447 
C   -0.14028141  -0.21197074  -0.20839272 
C   -0.04054953  -1.48486054   0.35945387 
H   -1.42824516   1.08792984  -1.35628081 
H   -3.15847714  -0.59959720  -1.71449479 
H   -2.88674057  -2.88970374  -0.82006000 
H    0.83750339  -1.75261215   0.94188620 
H   -0.88638705  -3.43799417   0.53076781 
Pd   1.42407674   0.94578069  -0.24853596 
O    3.56483419   1.53734777  -0.65815463 
O    2.77369810  -0.49895457  -0.69221994 
O    0.27689311   2.62034068   0.25913994 
C   -0.27786811   2.68805324   1.31995144 
O   -0.05294263   1.81784695   2.26334966 
H   -0.73686570   1.81728052   2.92667264 
C    3.73199571   0.31928095  -0.82262758 
H    4.71756390  -0.08855093  -1.09020088 
H   -0.98537939   3.50140551   1.52970718 
*
