! EnGrad PBEh-3c
%output 
xyzfile=True 
end 
%scf 
maxiter 250 
end
%output
Print[P_Hirshfeld] = 1
end
% maxcore
4000
*xyz 0 1
C   -1.30549042   0.09262182  -0.93929302 
C   -2.31294046  -0.84958442  -1.11286133 
C   -2.17018192  -2.11958151  -0.58543213 
C   -1.03418336  -2.45106366   0.13633302 
C   -0.11702779  -0.20409473  -0.22784987 
C   -0.03517955  -1.50829465   0.33235759 
H   -1.42786407   1.06567000  -1.41660815 
H   -3.18970027  -0.59195824  -1.68656359 
H   -2.94360986  -2.85803167  -0.74220176 
H    0.84907900  -1.80101279   0.89509576 
H   -0.91236680  -3.44833906   0.53354653 
Pd   1.43308252   0.94105955  -0.27402086 
O    3.59302793   1.55424042  -0.61424476 
O    2.80991202  -0.48121746  -0.71880272 
O    0.25067398   2.59749711   0.19686351 
C   -0.27081419   2.67882435   1.29170970 
O   -0.09153891   1.84228462   2.37417079 
H   -0.68861336   1.77107455   2.92491243 
C    3.77308224   0.33886733  -0.80741078 
H    4.76781889  -0.05522838  -1.05563138 
H   -0.97950749   3.48952092   1.49674129 
*
