! EnGrad PBEh-3c
%output 
xyzfile=True 
end 
%scf 
maxiter 250 
end
%output
Print[P_Hirshfeld] = 1
end
% maxcore
4000
*xyz 0 1
C   -1.29911289   0.09542532  -0.92980855 
C   -2.30989447  -0.85265604  -1.11405224 
C   -2.16746928  -2.12393702  -0.59145727 
C   -1.03389101  -2.44846761   0.13742404 
C   -0.11312754  -0.19694618  -0.22182293 
C   -0.03550226  -1.49585720   0.33634042 
H   -1.43012506   1.06668719  -1.40624899 
H   -3.18722676  -0.59455688  -1.69310797 
H   -2.93476824  -2.86388137  -0.75549904 
H    0.84365989  -1.79374123   0.90456313 
H   -0.90795199  -3.45074380   0.53056958 
Pd   1.41772469   0.92602474  -0.27239763 
O    3.59292706   1.55161085  -0.62315406 
O    2.80304093  -0.48196531  -0.71100039 
O    0.25427026   2.59916770   0.21851644 
C   -0.27452163   2.67156475   1.31553107 
O   -0.03115562   1.86008616   2.29766812 
H   -0.74497038   1.76765588   2.95710237 
C    3.76686182   0.33894466  -0.81299271 
H    4.76360004  -0.06188819  -1.06134553 
H   -0.97696368   3.49379401   1.49689872 
*
