! EnGrad PBEh-3c
%output 
xyzfile=True 
end 
%scf 
maxiter 250 
end
%output
Print[P_Hirshfeld] = 1
end
% maxcore
4000
*xyz 0 1
C   -1.29110118   0.10029880  -0.92326937 
C   -2.30330608  -0.85203069  -1.11307286 
C   -2.16625731  -2.12796145  -0.59538310 
C   -1.03139005  -2.44230326   0.13837090 
C   -0.12877060  -0.21019497  -0.21974245 
C   -0.03292348  -1.48430491   0.33866707 
H   -1.43160408   1.06621294  -1.39837080 
H   -3.18527340  -0.59607568  -1.69757643 
H   -2.92943866  -2.86894572  -0.76509601 
H    0.83899412  -1.78837004   0.90997131 
H   -0.90481438  -3.45151752   0.52888314 
Pd   1.41729688   0.92721018  -0.27053323 
O    3.59174530   1.54995130  -0.62944733 
O    2.79978838  -0.48508651  -0.70695758 
O    0.25549214   2.59729889   0.24180827 
C   -0.27937605   2.67264284   1.32202419 
O    0.01342861   1.86553861   2.24447232 
H   -0.78389526   1.76857374   2.98055176 
C    3.76018618   0.33864536  -0.81493962 
H    4.75954990  -0.06654814  -1.06559951 
H   -0.97570316   3.49646394   1.49807175 
*
