! EnGrad PBEh-3c
%output 
xyzfile=True 
end 
%scf 
maxiter 250 
end
%output
Print[P_Hirshfeld] = 1
end
% maxcore
4000
*xyz 0 1
C   -1.29072123   0.10160312  -0.92146822 
C   -2.29869903  -0.84980728  -1.11265796 
C   -2.16437152  -2.12912835  -0.59716076 
C   -1.02884850  -2.43819059   0.13973185 
C   -0.13701524  -0.21762681  -0.21936145 
C   -0.03281977  -1.48259425   0.34095785 
H   -1.43151570   1.06634683  -1.39321230 
H   -3.18265666  -0.59693395  -1.69936115 
H   -2.92702525  -2.87289095  -0.77114083 
H    0.83657059  -1.78412230   0.91247479 
H   -0.90288990  -3.45001163   0.52786542 
Pd   1.41796536   0.93040634  -0.26861549 
O    3.59025147   1.55041152  -0.63286020 
O    2.79789221  -0.48762629  -0.70512657 
O    0.25853656   2.59698897   0.24769777 
C   -0.28474114   2.68456458   1.31439562 
O    0.01519959   1.85232785   2.25294260 
H   -0.78091998   1.77301349   2.97218420 
C    3.75700864   0.33651023  -0.81591258 
H    4.75573119  -0.06895465  -1.06804235 
H   -0.97686337   3.49787269   1.50039729 
*
