! EnGrad PBEh-3c
%output 
xyzfile=True 
end 
%scf 
maxiter 250 
end
%output
Print[P_Hirshfeld] = 1
end
% maxcore
4000
*xyz 0 1
C   -1.29658469   0.10340439  -0.91781430 
C   -2.28896081  -0.84524872  -1.11365683 
C   -2.15541432  -2.12999500  -0.60312250 
C   -1.02317790  -2.43056782   0.14441057 
C   -0.15199293  -0.22978710  -0.21704836 
C   -0.03521956  -1.48453141   0.35094860 
H   -1.43041318   1.06943478  -1.37553928 
H   -3.17048011  -0.59994136  -1.70409794 
H   -2.91705381  -2.88576609  -0.79243939 
H    0.83031802  -1.76868892   0.92227311 
H   -0.89581423  -3.44180833   0.52406402 
Pd   1.41765574   0.93815829  -0.26105641 
O    3.58410528   1.54929446  -0.64517917 
O    2.79042649  -0.49531778  -0.69885158 
O    0.27261293   2.60094512   0.24976795 
C   -0.28856714   2.69571157   1.31821636 
O   -0.01995226   1.82593289   2.29014998 
H   -0.74234087   1.78854193   2.92149365 
C    3.74735059   0.33003684  -0.81922491 
H    4.74109305  -0.07716372  -1.07664318 
H   -0.98702826   3.50919622   1.51050602 
*
