! EnGrad PBEh-3c
%output 
xyzfile=True 
end 
%scf 
maxiter 250 
end
%output
Print[P_Hirshfeld] = 1
end
% maxcore
4000
*xyz 0 1
C   -1.30609938   0.10157751  -0.92618203 
C   -2.28954621  -0.84177522  -1.11348315 
C   -2.15366901  -2.12546045  -0.59993049 
C   -1.02249688  -2.43160770   0.14538681 
C   -0.16171363  -0.24180089  -0.22240452 
C   -0.03588516  -1.49861073   0.35185611 
H   -1.42706598   1.07108684  -1.37719935 
H   -3.16585822  -0.59854762  -1.69931858 
H   -2.91987926  -2.88550726  -0.78966696 
H    0.83399155  -1.76800896   0.91783887 
H   -0.89662666  -3.43409315   0.52565296 
Pd   1.43422977   0.95742324  -0.25860109 
O    3.58018295   1.54981321  -0.64229441 
O    2.79338369  -0.49818170  -0.70395903 
O    0.27540375   2.60130965   0.23188006 
C   -0.28482885   2.69722083   1.30711936 
O   -0.04986091   1.80856503   2.32543104 
H   -0.71630026   1.79642881   2.91011725 
C    3.74830151   0.32743103  -0.81460046 
H    4.73726108  -0.07449272  -1.07530149 
H   -0.99581358   3.51186652   1.51603565 
*
