! EnGrad PBEh-3c
%output 
xyzfile=True 
end 
%scf 
maxiter 250 
end
%output
Print[P_Hirshfeld] = 1
end
% maxcore
4000
*xyz 0 1
C   -1.30141836   0.10145912  -0.92330115 
C   -2.29485334  -0.84733906  -1.11446182 
C   -2.15623284  -2.12708702  -0.60060447 
C   -1.02657162  -2.43620550   0.14350790 
C   -0.14926926  -0.22890529  -0.21979912 
C   -0.03597349  -1.49244872   0.34954424 
H   -1.42839751   1.07187138  -1.37968093 
H   -3.16914246  -0.59838572  -1.70047106 
H   -2.91803617  -2.88184986  -0.78737002 
H    0.83554711  -1.77091146   0.91927917 
H   -0.89724199  -3.43842119   0.52623632 
Pd   1.42661389   0.94618654  -0.26060536 
O    3.58201641   1.54813548  -0.64154805 
O    2.79273386  -0.49468092  -0.70277017 
O    0.26872329   2.60256986   0.24322339 
C   -0.28059488   2.68792302   1.31128848 
O   -0.02587561   1.82506038   2.29050670 
H   -0.74249917   1.79181101   2.93274621 
C    3.74936300   0.32984364  -0.81597931 
H    4.74071038  -0.07434714  -1.07469055 
H   -0.99027030   3.50831942   1.51263733 
*
