! EnGrad PBEh-3c
%output 
xyzfile=True 
end 
%scf 
maxiter 250 
end
%output
Print[P_Hirshfeld] = 1
end
% maxcore
4000
*xyz -1 1
C   -2.70524586  -0.18805138   0.66991186 
C   -2.07834166   0.94179891   1.20497550 
C   -3.99805306  -0.54392748   1.02844942 
C   -4.78087132   0.37240810   1.73233756 
C   -4.18170907   1.50976504   2.21876785 
C   -2.82852405   1.72809238   2.05729321 
H   -2.13957732  -0.78122177  -0.00255364 
H   -4.38769693  -1.53898181   0.77385723 
H   -2.30649178   2.54580747   2.52484442 
H   -5.84885015   0.21186479   1.79966031 
H   -4.74939746   2.28322558   2.66033710 
C   -0.64600321   1.33468452   0.89391143 
C    0.50092222   0.48534105   1.48681209 
H   -0.54363145   2.33912131   1.28259588 
H   -0.51661610   1.38523210  -0.19067551 
C    1.71654828   0.55814725   0.59043183 
H    0.15638268  -0.54442427   1.60488402 
H    0.74865549   0.85886124   2.48973241 
C    1.80368509  -0.19308313  -0.61111178 
C    2.91989961   0.06793267  -1.41071582 
C    3.88042602   1.02621344  -1.08208654 
C    2.75188316   1.43058918   0.96207522 
C    3.81056145   1.72273361   0.11241699 
H    3.05098741  -0.49722491  -2.32463651 
H    4.69184553   1.22923515  -1.76871236 
H    2.74198606   1.91380795   1.93650869 
H    4.57394815   2.45288261   0.39116640 
Pd   0.47617921  -1.70567821  -1.18253297 
Br  -1.22409764  -3.64513276  -1.23715310 
P    1.29532706  -2.97734888   0.38345014 
H    0.49299368  -3.44518165   1.42221539 
C    0.59629067  -0.96489345  -3.93847358 
O    1.62179082  -1.59369932  -4.14808072 
O   -0.24473917  -1.06409089  -2.98946437 
O    0.21496633   0.01210472  -4.80792424 
H    2.46726400  -2.65707269   1.07656455 
H    1.68349240  -4.17619567  -0.21568237 
H    0.96368439   0.11019770  -5.39654180 
*
