! EnGrad PBEh-3c
%output 
xyzfile=True 
end 
%scf 
maxiter 250 
end
%output
Print[P_Hirshfeld] = 1
end
% maxcore
4000
*xyz -1 1
C   -2.67851021  -0.35523386   0.63816398 
C   -2.06180650   0.81461967   1.23317498 
C   -3.94324684  -0.58007856   1.16224251 
C   -4.71504540   0.38329438   1.85807124 
C   -4.14353572   1.54830366   2.30829868 
C   -2.77025852   1.70544018   2.08248361 
H   -2.41417274  -0.97737686  -0.11373325 
H   -4.40386874  -1.53471693   0.99261339 
H   -2.29339084   2.57745923   2.59315907 
H   -5.79108961   0.23915589   1.93760206 
H   -4.73803332   2.32965323   2.77475952 
C   -0.67775254   1.34996329   0.81901122 
C    0.48767539   0.54225644   1.42119392 
H   -0.53851311   2.41988812   1.06974981 
H   -0.68202753   1.31882312  -0.27644737 
C    1.74788122   0.56893747   0.60358757 
H    0.15056813  -0.48656581   1.53888436 
H    0.67052577   0.93011698   2.42879478 
C    1.83187638  -0.15339916  -0.61648162 
C    2.98854500   0.04231501  -1.37647651 
C    3.93542664   1.01299133  -1.05672781 
C    2.74587164   1.48211547   0.96206077 
C    3.83477497   1.71241756   0.13847251 
H    3.12259889  -0.54454300  -2.27996868 
H    4.75255816   1.20954600  -1.73573750 
H    2.71533851   1.92670776   1.95561290 
H    4.52296157   2.51205202   0.37015843 
Pd   0.44738128  -1.63387150  -1.22172441 
Br  -1.16071807  -3.62159682  -1.46191173 
P    1.23679553  -2.94776508   0.36158663 
H    0.36503731  -3.37525486   1.37328168 
C    0.61757663  -0.98530472  -3.98268978 
O    1.64250981  -1.60521114  -4.13104021 
O   -0.21579900  -1.02256316  -3.01830718 
O    0.31551508   0.02231512  -4.86625429 
H    2.37609299  -2.66735177   1.15285561 
H    1.65911509  -4.20067337  -0.12891764 
H    1.05817172   0.05338298  -5.51085385 
*
