! EnGrad PBEh-3c
%output 
xyzfile=True 
end 
%scf 
maxiter 250 
end
%output
Print[P_Hirshfeld] = 1
end
% maxcore
4000
*xyz -1 1
C   -2.71499807  -0.24428738   0.68461050 
C   -2.07440734   0.80402156   1.19657055 
C   -3.95166451  -0.57888475   1.10406704 
C   -4.70785665   0.36506823   1.83916754 
C   -4.14222737   1.53822654   2.29401180 
C   -2.76758836   1.67867710   2.05087882 
H   -2.36320741  -0.91163484  -0.06494474 
H   -4.40478537  -1.54764325   0.96065313 
H   -2.30192680   2.55541620   2.57690542 
H   -5.78951901   0.23840679   1.89284494 
H   -4.75113549   2.33504297   2.74897787 
C   -0.66757170   1.33562241   0.83979782 
C    0.49805947   0.53178033   1.43833600 
H   -0.54241175   2.40890464   1.12211136 
H   -0.65228508   1.33234361  -0.25700373 
C    1.75020740   0.56184940   0.59775605 
H    0.14769128  -0.49347256   1.54967723 
H    0.68748488   0.92063396   2.44751800 
C    1.81385798  -0.16656455  -0.62510170 
C    2.97059959   0.04993039  -1.38325309 
C    3.93148588   1.01161587  -1.05754954 
C    2.74709316   1.48383421   0.96177046 
C    3.83189367   1.72119331   0.13478077 
H    3.10655153  -0.53656884  -2.28676382 
H    4.74074876   1.21940909  -1.74574889 
H    2.72953493   1.92522117   1.96206880 
H    4.53810660   2.50429146   0.37720215 
Pd   0.44803886  -1.67883114  -1.21361051 
Br  -1.17082744  -3.62252996  -1.41240666 
P    1.24277771  -2.94367806   0.35335758 
H    0.39095556  -3.39035744   1.38267242 
C    0.63610627  -0.98436541  -3.97180732 
O    1.62417259  -1.59764869  -4.13940722 
O   -0.23096700  -1.03506567  -3.02002075 
O    0.28727385   0.01509829  -4.84717626 
H    2.40042329  -2.66637192   1.14085154 
H    1.66181497  -4.19132365  -0.15066635 
H    1.04131925   0.06550362  -5.48402416 
*
