! EnGrad PBEh-3c
%output 
xyzfile=True 
end 
%scf 
maxiter 250 
end
%output
Print[P_Hirshfeld] = 1
end
% maxcore
4000
*xyz -1 1
C   -2.73394319  -0.21432893   0.68497270 
C   -2.05830107   0.84971154   1.19861228 
C   -3.98723269  -0.56899078   1.08700371 
C   -4.71149522   0.35055536   1.81947105 
C   -4.13766711   1.52994757   2.27965805 
C   -2.77453061   1.67533492   2.04303674 
H   -2.32033027  -0.87000052  -0.03738212 
H   -4.40178790  -1.55471795   0.93177850 
H   -2.30813586   2.53297908   2.55820818 
H   -5.78651545   0.23579989   1.86418505 
H   -4.75504958   2.33263130   2.72931361 
C   -0.66491260   1.32705007   0.84812056 
C    0.50413363   0.52205100   1.45055594 
H   -0.54760210   2.39403465   1.15791425 
H   -0.62799778   1.34178003  -0.24197087 
C    1.74737612   0.56024482   0.59303550 
H    0.14691818  -0.49970111   1.55853548 
H    0.69991824   0.91223413   2.45959532 
C    1.80587634  -0.17503785  -0.62729353 
C    2.95778665   0.05450815  -1.38952387 
C    3.92536694   1.01138378  -1.05745255 
C    2.74752620   1.47884133   0.96221998 
C    3.82912369   1.72636577   0.12950806 
H    3.09541842  -0.52979350  -2.29190475 
H    4.73250340   1.22509078  -1.75234930 
H    2.73753503   1.92426996   1.96326042 
H    4.54923366   2.49808285   0.38217250 
Pd   0.44994630  -1.70212251  -1.21014093 
Br  -1.17960196  -3.62467026  -1.37722524 
P    1.25141177  -2.94642919   0.35601266 
H    0.41082742  -3.40049211   1.38823788 
C    0.61709724  -0.96680435  -3.95661393 
O    1.63814535  -1.60867019  -4.14895066 
O   -0.23714879  -1.04327808  -3.02041429 
O    0.27541602   0.01145525  -4.84099589 
H    2.41412648  -2.66537025   1.12931357 
H    1.66381905  -4.18431238  -0.16531536 
H    1.02237568   0.07386793  -5.46098878 
*
