! EnGrad PBEh-3c
%output 
xyzfile=True 
end 
%scf 
maxiter 250 
end
%output
Print[P_Hirshfeld] = 1
end
% maxcore
4000
*xyz -1 1
C   -2.73878137  -0.20476705   0.68733492 
C   -2.04097631   0.90530102   1.20937427 
C   -4.01947561  -0.55905901   1.08674306 
C   -4.72866247   0.35076096   1.80310111 
C   -4.13726261   1.52010434   2.26265994 
C   -2.78601876   1.69221251   2.05578160 
H   -2.27736406  -0.85631371  -0.03782094 
H   -4.39929748  -1.55798225   0.90157884 
H   -2.31256850   2.51290168   2.53758629 
H   -5.78536397   0.23046722   1.84823218 
H   -4.75087828   2.32169895   2.71290775 
C   -0.66307767   1.32673667   0.85236802 
C    0.50525140   0.51290541   1.45885210 
H   -0.55274648   2.37451499   1.18236810 
H   -0.60568839   1.34897799  -0.23063662 
C    1.73818977   0.56446473   0.58672118 
H    0.14808724  -0.50733422   1.56733242 
H    0.70973762   0.90324130   2.46711603 
C    1.80522279  -0.18186785  -0.62378221 
C    2.94763345   0.05749652  -1.39570621 
C    3.91735379   1.01182424  -1.05806986 
C    2.74944733   1.46486642   0.96458583 
C    3.82446622   1.72987732   0.12282732 
H    3.08710957  -0.52316789  -2.29686539 
H    4.72596507   1.22715709  -1.75613770 
H    2.74016340   1.92398703   1.95906809 
H    4.55767386   2.49181537   0.38546671 
Pd   0.45820169  -1.70804498  -1.20315915 
Br  -1.18888743  -3.62855950  -1.35066874 
P    1.26168476  -2.95421891   0.36502695 
H    0.42740418  -3.40801193   1.39232307 
C    0.61171223  -0.95590783  -3.94600416 
O    1.64243325  -1.61390950  -4.15406613 
O   -0.24260808  -1.04590865  -3.02195539 
O    0.26910957   0.01025289  -4.84088481 
H    2.42116441  -2.66388909   1.11725816 
H    1.66584851  -4.17924738  -0.17523095 
H    1.00266515   0.07888393  -5.43983093 
*
