! EnGrad PBEh-3c
%output 
xyzfile=True 
end 
%scf 
maxiter 250 
end
%output
Print[P_Hirshfeld] = 1
end
% maxcore
4000
*xyz -1 1
C   -2.74185797  -0.17821207   0.67883404 
C   -2.04395415   0.93476562   1.20527014 
C   -4.03524866  -0.55264209   1.05641784 
C   -4.74791657   0.35517250   1.78367961 
C   -4.14664658   1.50888849   2.24372639 
C   -2.79977204   1.70302070   2.05415176 
H   -2.22179146  -0.80175364  -0.00157155 
H   -4.39544567  -1.56259691   0.85625371 
H   -2.31645446   2.49875840   2.51962540 
H   -5.79324316   0.22529024   1.81543606 
H   -4.74977352   2.30907290   2.68440155 
C   -0.65169013   1.32771433   0.86797939 
C    0.50981352   0.50026200   1.47353490 
H   -0.55619370   2.35268823   1.22843309 
H   -0.57037375   1.36221456  -0.21278923 
C    1.73185907   0.56201520   0.58489500 
H    0.14880543  -0.51915580   1.58120676 
H    0.72685710   0.88904587   2.48100338 
C    1.79915569  -0.18989507  -0.62309922 
C    2.93274561   0.06313833  -1.40319684 
C    3.90577438   1.01418651  -1.06290654 
C    2.74997369   1.45577560   0.96373372 
C    3.82008578   1.73297020   0.11727240 
H    3.07176656  -0.51337590  -2.30601123 
H    4.71267613   1.23226884  -1.76318836 
H    2.74775671   1.92109169   1.95617793 
H    4.57026502   2.48046022   0.39082269 
Pd   0.46052729  -1.72678554  -1.20097561 
Br  -1.20229169  -3.63333539  -1.30167688 
P    1.27632292  -2.96167000   0.37324625 
H    0.45528238  -3.42231613   1.40113503 
C    0.60384230  -0.95311328  -3.93611469 
O    1.63872218  -1.61115196  -4.15817975 
O   -0.24702806  -1.05657525  -3.01452898 
O    0.24803548   0.00876167  -4.82813397 
H    2.43934722  -2.66202931   1.09997034 
H    1.67027729  -4.17253466  -0.19473918 
H    0.98269792   0.09106965  -5.41489124 
*
