! EnGrad PBEh-3c
%output 
xyzfile=True 
end 
%scf 
maxiter 250 
end
%output
Print[P_Hirshfeld] = 1
end
% maxcore
4000
*xyz -1 1
C   -2.72824520  -0.16696514   0.67824941 
C   -2.06544809   0.96073171   1.20681195 
C   -4.02510237  -0.54398495   1.03269785 
C   -4.77363093   0.36716750   1.75181935 
C   -4.16806697   1.50779990   2.22467169 
C   -2.82141122   1.71338856   2.05416133 
H   -2.15507874  -0.77259196   0.00814327 
H   -4.39209147  -1.55653436   0.79678281 
H   -2.31048341   2.51514016   2.51349211 
H   -5.82382001   0.21589241   1.79530133 
H   -4.74398439   2.28580455   2.65789669 
C   -0.64081716   1.33265591   0.88626644 
C    0.50675431   0.48805594   1.48568779 
H   -0.55357865   2.33270507   1.27236343 
H   -0.52881092   1.37792606  -0.19591881 
C    1.71895560   0.56241972   0.58370706 
H    0.15265928  -0.53701060   1.59871125 
H    0.74455257   0.86873706   2.49102118 
C    1.79947914  -0.19661199  -0.61623772 
C    2.91948506   0.06840514  -1.41010555 
C    3.88909556   1.01989305  -1.07414730 
C    2.75264465   1.43593666   0.96413710 
C    3.81241290   1.73156839   0.11174465 
H    3.05592193  -0.50139562  -2.31875787 
H    4.69721082   1.23270514  -1.76800464 
H    2.74804489   1.91714057   1.94439686 
H    4.57857056   2.46302902   0.39360772 
Pd   0.47264063  -1.72379079  -1.18884867 
Br  -1.21915578  -3.64175984  -1.25111222 
P    1.29212622  -2.97340031   0.38308192 
H    0.48485679  -3.43885489   1.41439014 
C    0.58597405  -0.94776709  -3.92614958 
O    1.63830898  -1.60929972  -4.15775382 
O   -0.24515906  -1.06254190  -3.00785568 
O    0.22195216   0.00718140  -4.81118970 
H    2.45869196  -2.65860525   1.08090007 
H    1.67799980  -4.17058371  -0.21256062 
H    0.96590700   0.10496288  -5.39578899 
*
