! EnGrad PBEh-3c
%output 
xyzfile=True 
end 
%scf 
maxiter 250 
end
%output
Print[P_Hirshfeld] = 1
end
% maxcore
4000
*xyz -1 1
Pd  -2.11674642  -1.63449622   0.72056774 
Cl  -3.40312332  -3.32249550  -0.25964478 
Cl  -0.58869850  -4.78651179   1.32196079 
Cl  -4.08847259  -0.46438612   0.99564282 
N   -0.96574449  -0.03903862   1.41824790 
C   -1.29601779   0.51207474   2.56946108 
C   -0.79667889   1.74847252   2.99068393 
C    0.08934633   2.39940705   2.16930975 
C   -0.08087843   0.55906456   0.59115061 
C    0.46439623   1.80829766   0.95379407 
H    0.49877888   3.35711808   2.46745174 
H   -1.98461019  -0.04129803   3.19625559 
H   -1.10499555   2.16262721   3.93942739 
C    0.33224374  -0.12279454  -0.60316508 
C    1.38256912   2.44342666   0.05929812 
C    1.72851318   1.84686794  -1.10294800 
C    1.23327911   0.55146352  -1.45789834 
H    1.78911577   3.41331884   0.32141263 
H    2.41826945   2.35176493  -1.77343737 
C   -0.11316407  -1.42375328  -0.92875671 
C    1.66107713  -0.06915358  -2.63799217 
C    0.29666791  -1.97368471  -2.12803997 
C    1.22427318  -1.33120427  -2.95260807 
H    2.34819526   0.43814809  -3.31199577 
H    1.57331045  -1.80018198  -3.86802387 
H   -0.42945373  -3.65131365  -0.21955059 
H   -0.07145640  -2.93173950  -2.47060809 
*
