! EnGrad PBEh-3c
%output 
xyzfile=True 
end 
%scf 
maxiter 250 
end
%output
Print[P_Hirshfeld] = 1
end
% maxcore
4000
*xyz -1 1
Pd  -2.06460193  -1.63265508   0.56673913 
Cl  -3.39371642  -3.28408597  -0.22955376 
Cl  -0.58548384  -4.58926455   1.13325542 
Cl  -4.06163355  -0.40692376   0.97987517 
N   -0.99144320  -0.07268805   1.42028816 
C   -1.29786222   0.48937617   2.57341086 
C   -0.78487161   1.72141635   2.99949290 
C    0.08894292   2.38716672   2.16341358 
C   -0.07142905   0.52968656   0.61294665 
C    0.46133791   1.80567817   0.95312563 
H    0.49622155   3.34453856   2.45713366 
H   -1.98592442  -0.04890613   3.19016081 
H   -1.09647951   2.13999597   3.94058584 
C    0.33435595  -0.15206569  -0.60127157 
C    1.37389225   2.44758443   0.05542275 
C    1.72015005   1.85402836  -1.10681921 
C    1.23698489   0.55608969  -1.47304689 
H    1.77245822   3.41018622   0.32053558 
H    2.39934910   2.35056914  -1.78134681 
C   -0.17833354  -1.48782367  -0.87448661 
C    1.67326033  -0.06313155  -2.64392486 
C    0.30884248  -1.98764695  -2.10373309 
C    1.21489792  -1.31538308  -2.96784113 
H    2.34537695   0.45373911  -3.30839650 
H    1.57509492  -1.80082777  -3.87006836 
H   -0.44335995  -3.69605561   0.05101857 
H   -0.04961044  -2.95493927  -2.45502151 
*
