! EnGrad PBEh-3c
%output 
xyzfile=True 
end 
%scf 
maxiter 250 
end
%output
Print[P_Hirshfeld] = 1
end
% maxcore
4000
*xyz -1 1
Pd  -2.05261210  -1.60179134   0.53518402 
Cl  -3.40398820  -3.28282066  -0.22913047 
Cl  -0.58552713  -4.51771533   1.08768828 
Cl  -4.03846720  -0.38372699   0.95892937 
N   -0.97707660  -0.07385342   1.41033545 
C   -1.29576916   0.47968004   2.57021960 
C   -0.77755840   1.70812773   2.99472285 
C    0.08445987   2.37683246   2.16954629 
C   -0.06963386   0.52148990   0.60709458 
C    0.45945505   1.78956633   0.95031618 
H    0.49414021   3.34030349   2.45449409 
H   -1.99269248  -0.06020425   3.19460063 
H   -1.09196822   2.12780464   3.94470441 
C    0.33080624  -0.16518070  -0.59674746 
C    1.36339009   2.44074144   0.05429130 
C    1.71045696   1.84837138  -1.10825773 
C    1.22344252   0.54190199  -1.45743880 
H    1.76534672   3.41469314   0.32091768 
H    2.39254747   2.35456562  -1.78823750 
C   -0.16627179  -1.47595386  -0.88062517 
C    1.66599373  -0.06389690  -2.64724471 
C    0.30588803  -1.99660321  -2.09264209 
C    1.20748093  -1.32228253  -2.95257732 
H    2.34732488   0.46331102  -3.31363991 
H    1.57365194  -1.79964640  -3.86986165 
H   -0.44549083  -3.70376634   0.13385508 
H   -0.03308346  -2.96293373  -2.44833727 
*
