! EnGrad PBEh-3c
%output 
xyzfile=True 
end 
%scf 
maxiter 250 
end
%output
Print[P_Hirshfeld] = 1
end
% maxcore
4000
*xyz -1 1
Pd  -1.99291768  -1.45876619   0.29440451 
Cl  -3.40030455  -3.24470211  -0.27044395 
Cl  -0.56972469  -4.44615300   1.14983061 
Cl  -3.91993054  -0.27545873   0.91124321 
N   -0.95659699  -0.09385744   1.38383376 
C   -1.29772610   0.41883947   2.55744397 
C   -0.76240825   1.63696521   2.99767019 
C    0.08518685   2.32252531   2.17211054 
C   -0.04435241   0.50584393   0.60870580 
C    0.47059839   1.76308935   0.95376462 
H    0.47365841   3.29808283   2.43359476 
H   -2.01461571  -0.10561707   3.16667888 
H   -1.06624027   2.04932542   3.94937677 
C    0.34691861  -0.17449777  -0.58763291 
C    1.33613819   2.42879521   0.04584655 
C    1.67730229   1.83118040  -1.11129059 
C    1.22474440   0.52056071  -1.45117514 
H    1.71141678   3.40381268   0.31359873 
H    2.32940936   2.33995601  -1.80468364 
C   -0.20189574  -1.46674856  -0.87173289 
C    1.63289153  -0.07420610  -2.63954700 
C    0.30246351  -2.02780786  -2.04807691 
C    1.19367281  -1.34410928  -2.91186068 
H    2.30725899   0.47092774  -3.29527484 
H    1.53380941  -1.80542806  -3.83173395 
H   -0.43285834  -3.46494790   0.27589442 
H    0.01658933  -3.01979978  -2.38801559 
*
