! EnGrad PBEh-3c
%output 
xyzfile=True 
end 
%scf 
maxiter 250 
end
%output
Print[P_Hirshfeld] = 1
end
% maxcore
4000
*xyz -1 1
Pt  -0.62170302  -0.71890371   0.37156582 
Cl  -0.01478511  -0.11192510   2.55483068 
Cl  -2.54833582  -1.81607009   1.09322676 
Cl  -1.06229810  -1.29203915  -1.86174405 
C    0.68695757   0.95206258  -0.45497776 
H    1.36739829   1.41885428   0.25564440 
H    1.10682799  -0.84430909   0.09621184 
H    1.21124494   0.75910203  -1.38983763 
H   -0.12530674   1.65322722  -0.66490213 
*
