! EnGrad PBEh-3c
%output 
xyzfile=True 
end 
%scf 
maxiter 250 
end
%output
Print[P_Hirshfeld] = 1
end
% maxcore
4000
*xyz -1 1
Pt  -0.42510272  -0.68461222   0.33020789 
Cl  -0.05945727  -0.16428882   2.56740208 
Cl  -2.55659241  -1.86709979   1.10141690 
Cl  -1.13402589  -1.26048414  -1.82482869 
C    0.68840662   0.92014378  -0.45199552 
H    1.37031396   1.44933001   0.24252655 
H    0.96541532  -0.74133026   0.13499841 
H    1.25812201   0.73773268  -1.38846418 
H   -0.10854126   1.60946326  -0.70858350 
*
