! EnGrad PBEh-3c
%output 
xyzfile=True 
end 
%scf 
maxiter 250 
end
%output
Print[P_Hirshfeld] = 1
end
% maxcore
4000
*xyz -1 1
Pt  -0.54268707  -0.70512156   0.35494359 
Cl  -0.03273937  -0.13297069   2.55988328 
Cl  -2.55165424  -1.83657952   1.09651847 
Cl  -1.09112633  -1.27935682  -1.84690734 
C    0.68753996   0.93923404  -0.45377916 
H    1.36857013   1.43110283   0.25037218 
H    1.04999259  -0.80292069   0.11180061 
H    1.23008538   0.75051343  -1.38928562 
H   -0.11856850   1.63563797  -0.68245818 
*
