! EnGrad PBEh-3c
%output 
xyzfile=True 
end 
%scf 
maxiter 250 
end
%output
Print[P_Hirshfeld] = 1
end
% maxcore
4000
*xyz -1 1
Pt  -0.39712791  -0.67957517   0.32767168 
Cl  -0.07531746  -0.19057663   2.57455120 
Cl  -2.53152512  -1.88136675   1.09596000 
Cl  -1.16553564  -1.24100939  -1.80898880 
C    0.70349337   0.91033108  -0.45591409 
H    1.36576361   1.46070178   0.23121929 
H    0.92128287  -0.69348372   0.15073500 
H    1.27894759   0.72429906  -1.37778814 
H   -0.10208399   1.58908598  -0.73481753 
*
