! EnGrad PBEh-3c
%output 
xyzfile=True 
end 
%scf 
maxiter 250 
end
%output
Print[P_Hirshfeld] = 1
end
% maxcore
4000
*xyz -1 1
Pt  -0.47593212  -0.69340572   0.34243641 
Cl  -0.05226613  -0.15938938   2.56661014 
Cl  -2.54242282  -1.85711941   1.09626235 
Cl  -1.12525122  -1.26177029  -1.82951750 
C    0.69485636   0.92597884  -0.45475827 
H    1.36728303   1.44467722   0.24158847 
H    0.99096497  -0.75273176   0.12965633 
H    1.25249410   0.73849125  -1.38401276 
H   -0.11100853   1.61428874  -0.70647073 
*
