! EnGrad PBEh-3c
%output 
xyzfile=True 
end 
%scf 
maxiter 250 
end
%output
Print[P_Hirshfeld] = 1
end
% maxcore
4000
*xyz -1 1
Pt  -0.53874427  -0.68692205   0.36019649 
Cl  -0.07997829  -0.21139270   2.58319921 
Cl  -2.48119262  -1.88178656   1.08402830 
Cl  -1.18062522  -1.21944765  -1.80348208 
C    0.71983757   0.91004739  -0.46322596 
H    1.35977252   1.46304811   0.22637861 
H    0.99498590  -0.64355510   0.13989699 
H    1.29935914   0.70102104  -1.36521250 
H   -0.09563296   1.56512841  -0.76007281 
*
