! EnGrad PBEh-3c
%output 
xyzfile=True 
end 
%scf 
maxiter 250 
end
%output
Print[P_Hirshfeld] = 1
end
% maxcore
4000
*xyz -1 1
C   -1.90066357  -0.03430122   0.58499069 
C   -1.68271646   1.09579405   1.38512717 
C   -3.26907464  -0.31733676   0.35521291 
C   -4.31988725   0.49223809   0.78784215 
C   -4.04623019   1.67228364   1.46374823 
C   -2.72953062   1.95096226   1.75218645 
H   -1.31988153  -2.00211747  -2.50003947 
H   -3.55334890  -1.26094400  -0.09913647 
H   -2.48505353   2.83336005   2.34211807 
H   -5.35057251   0.21798182   0.57706341 
H   -4.83420870   2.36327240   1.73243571 
C   -0.38762142   1.46432543   2.05912565 
C    0.75729324   0.46873590   2.10424585 
H   -0.65370187   1.66978835   3.09869747 
H   -0.01030151   2.41690896   1.66736012 
C    1.69241082   0.64818167   0.95867354 
H    0.36991376  -0.54782902   2.13124849 
H    1.30464556   0.59097607   3.03820674 
C    1.38848654   0.04933645  -0.26181476 
C    2.34699971   0.26475120  -1.28171743 
C    3.41719502   1.14961490  -1.12490583 
C    2.79629795   1.47529499   1.13653326 
C    3.64010865   1.77791308   0.08747092 
H    2.30086620  -0.23867436  -2.24553359 
H    4.09929987   1.35565266  -1.93755673 
H    2.95688066   1.91485952   2.11234438 
H    4.46585385   2.46350205   0.23009732 
Pd  -0.24698437  -1.30046653  -0.15365621 
Br  -1.77691984  -3.32844953  -0.52377535 
P    1.42795520  -2.90782418  -0.19242186 
H    1.24754095  -3.57451053   1.02646985 
C    0.02162505  -1.60328674  -3.80030824 
O    1.11951894  -1.87541439  -3.99015840 
O   -0.97685211  -2.37099617  -3.32843688 
O   -0.44801821  -0.33057335  -3.90147164 
H    2.81291666  -2.71044296  -0.03287613 
H    1.53669726  -4.06177156  -0.98257867 
H    0.29320809   0.15362495  -4.29526176 
*
