! EnGrad PBEh-3c
%output 
xyzfile=True 
end 
%scf 
maxiter 250 
end
%output
Print[P_Hirshfeld] = 1
end
% maxcore
4000
*xyz -1 1
C   -1.91896099  -0.01817686   0.56953717 
C   -1.69807801   1.09472734   1.39970339 
C   -3.29408027  -0.31035038   0.35003327 
C   -4.33383650   0.52228338   0.77391799 
C   -4.06425700   1.69823156   1.45498002 
C   -2.74736058   1.95072412   1.76650056 
H   -1.34827599  -2.03915575  -2.47704511 
H   -3.58546358  -1.26040044  -0.09480958 
H   -2.48838371   2.84130940   2.32411711 
H   -5.36329428   0.27266959   0.54523035 
H   -4.84281848   2.39885698   1.73441428 
C   -0.38764914   1.44946906   2.07939397 
C    0.76167884   0.44811566   2.09336108 
H   -0.66029326   1.61677086   3.11843732 
H   -0.03293423   2.41107719   1.70011741 
C    1.69890660   0.65032574   0.94642019 
H    0.38186624  -0.57806584   2.11078413 
H    1.30949895   0.57284731   3.02741815 
C    1.41314629   0.04172599  -0.27636637 
C    2.36832178   0.26662188  -1.29800148 
C    3.43199775   1.16725251  -1.13042612 
C    2.80282782   1.48030452   1.13832086 
C    3.63311974   1.81577272   0.08123298 
H    2.33670151  -0.23657972  -2.25922362 
H    4.12573673   1.39104669  -1.93872336 
H    2.98324424   1.88240358   2.13207009 
H    4.45746253   2.51120190   0.24208437 
Pd  -0.27178406  -1.28919098  -0.14582929 
Br  -1.73428278  -3.36264779  -0.56122589 
P    1.45967214  -2.91919734  -0.19477597 
H    1.26614654  -3.58264493   1.02409005 
C   -0.01234532  -1.54046173  -3.72314745 
O    1.07374697  -1.94066309  -3.98017228 
O   -0.89919029  -2.44711698  -3.31714424 
O   -0.49004391  -0.27746177  -3.92610532 
H    2.84465853  -2.73311656  -0.03518025 
H    1.53837178  -4.07641954  -0.97974725 
H    0.28863306   0.14125623  -4.29550281 
*
