! EnGrad PBEh-3c
%output 
xyzfile=True 
end 
%scf 
maxiter 250 
end
%output
Print[P_Hirshfeld] = 1
end
% maxcore
4000
*xyz -1 1
C   -1.89593458   0.01576955   0.54540802 
C   -1.70040137   1.07378070   1.44702298 
C   -3.28978175  -0.16474423   0.18464557 
C   -4.31281432   0.69497384   0.56427520 
C   -4.01676644   1.80556123   1.31889811 
C   -2.71588389   2.00639780   1.72982198 
H   -2.11756892  -2.47857510  -2.33839675 
H   -3.60176470  -1.07914983  -0.26999766 
H   -2.52685922   2.86477946   2.34636557 
H   -5.33989989   0.48397338   0.27326484 
H   -4.80251575   2.47891325   1.64392728 
C   -0.41838194   1.31513143   2.26814412 
C    0.78891769   0.38322715   2.14788693 
H   -0.70323235   1.32501130   3.30777554 
H   -0.10707014   2.31302685   2.04987928 
C    1.66883991   0.68669396   0.98028926 
H    0.47424416  -0.65498928   2.13899781 
H    1.39247270   0.49115953   3.05652610 
C    1.40480269   0.15266689  -0.28855661 
C    2.34136740   0.37742244  -1.29847022 
C    3.38176223   1.29197438  -1.12249190 
C    2.80949288   1.47633708   1.16120037 
C    3.58470260   1.89783354   0.09108789 
H    2.33218553  -0.18264196  -2.19585699 
H    4.09146466   1.46374711  -1.94017399 
H    3.09350111   1.78357182   2.16451656 
H    4.31719951   2.68655109   0.21001863 
Pd  -0.06402227  -1.25206304  -0.40797920 
Br  -1.59425294  -3.60646851  -0.18221679 
P    1.49281569  -2.98209989  -0.19772325 
H    1.45572455  -3.68232583   1.03031023 
C    0.07079408  -1.64169082  -3.75460377 
O    1.26920479  -1.78229323  -4.15962025 
O   -0.66637429  -2.55552472  -3.25197674 
O   -0.52774161  -0.42222334  -3.86858541 
H    2.85607307  -2.74629020  -0.17959210 
H    1.47566052  -4.07891963  -1.05400890 
H    0.10217999   0.24299148  -4.15141168 
*
