! EnGrad PBEh-3c
%output 
xyzfile=True 
end 
%scf 
maxiter 250 
end
%output
Print[P_Hirshfeld] = 1
end
% maxcore
4000
*xyz -1 1
C   -1.91318562  -0.00322613   0.53765498 
C   -1.70791663   1.07981751   1.40931126 
C   -3.28814559  -0.28153179   0.32540020 
C   -4.33653691   0.58292663   0.69520594 
C   -4.06998300   1.76167176   1.39295355 
C   -2.75737118   1.94418856   1.79267305 
H   -1.53899959  -2.28433341  -2.51361734 
H   -3.62337311  -1.21026212  -0.14088056 
H   -2.50115127   2.87800052   2.31686130 
H   -5.38370214   0.37391989   0.45220088 
H   -4.85143026   2.45630986   1.72862403 
C   -0.41542908   1.39215224   2.13230428 
C    0.77252125   0.41084796   2.10079271 
H   -0.67819501   1.50694012   3.21082068 
H   -0.06685938   2.39664325   1.80411861 
C    1.71334548   0.64286184   0.95199966 
H    0.41320337  -0.62786190   2.09951435 
H    1.34030900   0.54220929   3.02877078 
C    1.43145046   0.05035583  -0.28244518 
C    2.38282755   0.31497744  -1.31120760 
C    3.43394797   1.23206596  -1.13793750 
C    2.78623491   1.51776088   1.14339759 
C    3.63348410   1.84712816   0.09859949 
H    2.35925897  -0.24108006  -2.26993371 
H    4.13688085   1.42966042  -1.94371803 
H    3.04218960   1.82069278   2.15612998 
H    4.40867804   2.59808769   0.23789732 
Pd  -0.25132277  -1.24229240  -0.22999186 
Br  -1.66417519  -3.45608921  -0.49056076 
P    1.46964643  -2.93794031  -0.19301331 
H    1.33104385  -3.62559583   1.03872318 
C   -0.00165460  -1.57330630  -3.70456235 
O    1.11434402  -1.86858016  -4.05155773 
O   -0.91359161  -2.40862331  -3.11970235 
O   -0.47278963  -0.36237869  -3.93432510 
H    2.90301861  -2.74635994  -0.07017675 
H    1.52098519  -4.10349019  -1.00832204 
H    0.24528491   0.19845287  -4.26444787 
*
