! EnGrad PBEh-3c
%output 
xyzfile=True 
end 
%scf 
maxiter 250 
end
%output
Print[P_Hirshfeld] = 1
end
% maxcore
4000
*xyz -1 1
C   -1.91215219  -0.00247595   0.54310363 
C   -1.71178326   1.08262135   1.40899451 
C   -3.29904144  -0.29168091   0.32851332 
C   -4.33563675   0.56983970   0.71173751 
C   -4.06725492   1.74577783   1.40679402 
C   -2.75461889   1.94914314   1.78843457 
H   -1.49549952  -2.22789495  -2.50399023 
H   -3.61527416  -1.21907417  -0.12938863 
H   -2.49890113   2.86575096   2.31584052 
H   -5.37746242   0.35516071   0.47123624 
H   -4.85213904   2.44857981   1.73035990 
C   -0.40430036   1.40992088   2.12584014 
C    0.77263897   0.41485323   2.09577271 
H   -0.67486361   1.52733099   3.18669947 
H   -0.06146620   2.39760045   1.78293888 
C    1.70646790   0.64711602   0.94994906 
H    0.40644362  -0.61918947   2.10076435 
H    1.33255727   0.54843958   3.02834464 
C    1.42969252   0.04547263  -0.28232696 
C    2.37656446   0.29913222  -1.31341499 
C    3.43393167   1.21680331  -1.13073045 
C    2.79339314   1.50647139   1.14136382 
C    3.63161456   1.84674120   0.09239850 
H    2.35703558  -0.23746508  -2.26634736 
H    4.13945986   1.42544687  -1.94641855 
H    3.03006687   1.83387837   2.15385163 
H    4.42007115   2.58086288   0.24070818 
Pd  -0.25899181  -1.25322650  -0.20574372 
Br  -1.67755661  -3.43526438  -0.51063458 
P    1.46767731  -2.93356392  -0.19393990 
H    1.31723795  -3.61548938   1.03409681 
C   -0.03903094  -1.57380339  -3.66511098 
O    1.07579436  -1.90540915  -4.02819222 
O   -0.84382814  -2.40039445  -3.20050235 
O   -0.48583859  -0.33767144  -3.93968443 
H    2.89387081  -2.74505880  -0.06207031 
H    1.52553094  -4.09888676  -1.00133906 
H    0.25775451   0.18508966  -4.27304379 
*
