! EnGrad PBEh-3c
%output 
xyzfile=True 
end 
%scf 
maxiter 250 
end
%output
Print[P_Hirshfeld] = 1
end
% maxcore
4000
*xyz -1 1
Pd  -2.35752429  -1.75059164   0.83856133 
Cl  -4.00415051  -3.07268168   0.07770469 
Cl  -1.26827709  -3.69608999   1.78234661 
Cl  -3.49898818   0.13554219  -0.00302863 
N   -0.90928678  -0.28263246   1.45031655 
C   -1.18606291   0.23699856   2.62773225 
C   -0.69129974   1.46769797   3.06167710 
C    0.07715551   2.19782777   2.20046154 
C   -0.06209148   0.35139188   0.61600692 
C    0.41027464   1.65888600   0.94491301 
H    0.43862231   3.18345373   2.47385103 
H   -1.84875070  -0.33775639   3.25563946 
H   -0.95689821   1.83353190   4.04433050 
C    0.39294322  -0.30780019  -0.58958678 
C    1.19715230   2.39813952   0.01256628 
C    1.51025989   1.84877473  -1.17869072 
C    1.13185841   0.49072855  -1.49668931 
H    1.51744625   3.40294489   0.27387249 
H    2.09580642   2.43162306  -1.89826899 
C    0.22487436  -1.67970955  -0.86965496 
C    1.60287862  -0.04949324  -2.71335640 
C    0.64311962  -2.16627821  -2.09462012 
C    1.32322088  -1.36721399  -3.00077137 
H    2.18054182   0.55848499  -3.40943467 
H    1.69920658  -1.79924827  -3.92588363 
H   -0.14495997  -2.48302830  -0.16229346 
H    0.48328362  -3.20513329  -2.32049306 
*
