! EnGrad PBEh-3c
%output 
xyzfile=True 
end 
%scf 
maxiter 250 
end
%output
Print[P_Hirshfeld] = 1
end
% maxcore
4000
*xyz -1 1
Pd  -2.35024422  -1.76448769   0.84253405 
Cl  -3.99725762  -3.09149512   0.06832716 
Cl  -1.26400996  -3.67324342   1.75600404 
Cl  -3.49746734   0.11387760   0.02611985 
N   -0.90966286  -0.28929243   1.45435359 
C   -1.19022289   0.24657378   2.62897361 
C   -0.69702253   1.47177283   3.06001356 
C    0.07826573   2.19966655   2.19328870 
C   -0.06179176   0.34759391   0.62371414 
C    0.40580198   1.65085986   0.94560593 
H    0.44080263   3.18786635   2.47084210 
H   -1.85637705  -0.32888963   3.25767848 
H   -0.96179417   1.84314079   4.04118213 
C    0.40463172  -0.29864895  -0.58348813 
C    1.20100990   2.39334750   0.01083584 
C    1.50977526   1.83858034  -1.17452142 
C    1.13814333   0.49130974  -1.49961708 
H    1.52476365   3.40130803   0.27564091 
H    2.09865927   2.41807877  -1.89164208 
C    0.22444395  -1.69565941  -0.85787834 
C    1.59375497  -0.05545646  -2.70161693 
C    0.64720505  -2.16096317  -2.10304777 
C    1.31865228  -1.36757494  -3.01052800 
H    2.18425381   0.55694959  -3.40054858 
H    1.68956216  -1.79606501  -3.92161105 
H   -0.14184122  -2.42816025  -0.18591973 
H    0.46789126  -3.21405601  -2.32813859 
*
