! EnGrad PBEh-3c
%output 
xyzfile=True 
end 
%scf 
maxiter 250 
end
%output
Print[P_Hirshfeld] = 1
end
% maxcore
4000
*xyz -1 1
Pd  -2.34658963  -1.77338928   0.84564828 
Cl  -3.99085781  -3.11597390   0.05813171 
Cl  -1.25777918  -3.64381962   1.72744064 
Cl  -3.49308899   0.08747234   0.06019938 
N   -0.90846581  -0.29645689   1.46242281 
C   -1.19791013   0.24984749   2.62957830 
C   -0.69964674   1.48138300   3.05373764 
C    0.07452638   2.19868233   2.19161611 
C   -0.06057298   0.33858195   0.63217878 
C    0.40571805   1.64823742   0.94438535 
H    0.44292596   3.19011046   2.46481350 
H   -1.86499982  -0.31783534   3.26034929 
H   -0.96771063   1.85412132   4.03783394 
C    0.41949722  -0.29147927  -0.57931856 
C    1.20068239   2.38289795   0.01336444 
C    1.51321886   1.83368253  -1.17219119 
C    1.14206280   0.49120900  -1.49286196 
H    1.53154880   3.39484248   0.27631009 
H    2.09971324   2.39918518  -1.88363516 
C    0.23573863  -1.68223578  -0.86700988 
C    1.59334219  -0.05704770  -2.70573168 
C    0.65140475  -2.16550015  -2.11191071 
C    1.31026030  -1.36780263  -3.01109121 
H    2.18165878   0.54989214  -3.38222728 
H    1.68053369  -1.79488226  -3.92631009 
H   -0.14819537  -2.38054441  -0.19449395 
H    0.45205012  -3.21833185  -2.33508040 
*
