! EnGrad PBEh-3c
%output 
xyzfile=True 
end 
%scf 
maxiter 250 
end
%output
Print[P_Hirshfeld] = 1
end
% maxcore
4000
*xyz -1 1
Pd  -2.34771027  -1.78058192   0.84744674 
Cl  -3.98176357  -3.14611952   0.04688360 
Cl  -1.24583647  -3.61214757   1.69668412 
Cl  -3.48945758   0.05879911   0.10033446 
N   -0.90729234  -0.30578045   1.47391356 
C   -1.20464856   0.25419119   2.62969372 
C   -0.70964263   1.48724247   3.05229930 
C    0.07457316   2.20433763   2.18645894 
C   -0.05292326   0.33384093   0.64009508 
C    0.40334290   1.64156965   0.94723440 
H    0.44404790   3.18866031   2.45555962 
H   -1.87695586  -0.30467134   3.26476170 
H   -0.97429027   1.86703518   4.03063083 
C    0.43049066  -0.29354967  -0.57315879 
C    1.20199976   2.37634362   0.01819538 
C    1.51659106   1.82753694  -1.16611216 
C    1.15466088   0.49459084  -1.49423442 
H    1.53718722   3.38039590   0.27603343 
H    2.10421831   2.37951239  -1.87855688 
C    0.25647995  -1.65507257  -0.89429374 
C    1.58709078  -0.06210715  -2.70146849 
C    0.64662711  -2.17618063  -2.10747210 
C    1.30968842  -1.36319622  -3.02132076 
H    2.18104402   0.54482603  -3.36475731 
H    1.66940813  -1.79346279  -3.93581930 
H   -0.16388198  -2.33642281  -0.19108576 
H    0.43473383  -3.21757066  -2.34175725 
*
