! EnGrad PBEh-3c
%output 
xyzfile=True 
end 
%scf 
maxiter 250 
end
%output
Print[P_Hirshfeld] = 1
end
% maxcore
4000
*xyz -1 1
Pd  -2.35459377  -1.78142603   0.84665200 
Cl  -3.97366279  -3.16431424   0.04160784 
Cl  -1.22998220  -3.60290810   1.68478376 
Cl  -3.49346631   0.05006677   0.12191798 
N   -0.90155962  -0.30801125   1.47573730 
C   -1.21016801   0.25249194   2.63296491 
C   -0.71338361   1.49452671   3.04934139 
C    0.06913098   2.20130003   2.18686279 
C   -0.04778011   0.33073188   0.64583898 
C    0.40454347   1.64032192   0.95199627 
H    0.44500589   3.18854825   2.44879022 
H   -1.88478308  -0.29581981   3.26717692 
H   -0.97938446   1.87480736   4.02531075 
C    0.43633047  -0.29726514  -0.57737489 
C    1.20099810   2.37196892   0.02477651 
C    1.52409679   1.82854534  -1.16571857 
C    1.15896796   0.49371120  -1.48811890 
H    1.53903774   3.36927225   0.27627104 
H    2.11063896   2.37247961  -1.87946212 
C    0.26017846  -1.64549723  -0.90497187 
C    1.58665005  -0.06584535  -2.70222061 
C    0.64220766  -2.17585176  -2.10348747 
C    1.31042421  -1.36490260  -3.02395046 
H    2.18248292   0.54494722  -3.35921470 
H    1.66405744  -1.79264300  -3.94966786 
H   -0.17437281  -2.31676661  -0.18577283 
H    0.42527223  -3.21240274  -2.34276196 
*
