! EnGrad PBEh-3c
%output 
xyzfile=True 
end 
%scf 
maxiter 250 
end
%output
Print[P_Hirshfeld] = 1
end
% maxcore
4000
*xyz 1 1
Sc   1.63024602  -1.23630589  -1.54596745 
C    0.34340986  -0.57670460   0.20831803 
N   -0.46991939  -1.36520994   0.92992560 
C   -0.78329084  -0.77281553   2.11759424 
C   -0.12282942   0.40470333   2.15037063 
N    0.57277226   0.50167647   0.98268263 
C    1.42282325   1.62332831   0.64706212 
H    1.50964124   2.37561291   1.42788826 
H    1.00551552   2.13587681  -0.21506588 
H    2.43845847   1.30966127   0.41816671 
C   -0.97931512  -2.67063850   0.54998837 
H   -0.59856861  -2.94865536  -0.42901770 
H   -2.06606865  -2.64114353   0.50634190 
H   -0.66756072  -3.42281446   1.27070923 
H   -1.43390738  -1.22335313   2.84766344 
H   -0.12698483   1.15244114   2.92440924 
C   -0.23657384   1.70069897  -2.86383959 
H   -0.90005471   1.70395029  -3.74126539 
H    0.26258320   2.67308475  -2.92841275 
H   -0.86985726   1.71390342  -1.97487230 
H    0.06950513  -0.43728508  -3.28268516 
*
