! EnGrad PBEh-3c
%output 
xyzfile=True 
end 
%scf 
maxiter 250 
end
%output
Print[P_Hirshfeld] = 1
end
% maxcore
4000
*xyz 1 1
Sc   1.24347102  -0.62066435  -1.91018887 
C    0.39200494  -0.60421349   0.22776427 
N   -0.45100043  -1.36687499   0.94854048 
C   -0.78676138  -0.76538559   2.13264914 
C   -0.13003025   0.41208159   2.16871424 
N    0.58747578   0.48606389   1.00576033 
C    1.41428992   1.60742477   0.62333760 
H    1.45185429   2.32614105   1.44506887 
H    1.00856124   2.11755227  -0.24699822 
H    2.43770210   1.28772456   0.41734896 
C   -0.96847668  -2.65526416   0.55100181 
H   -0.59972211  -2.92199979  -0.43446229 
H   -2.05577431  -2.63073707   0.50472431 
H   -0.65481286  -3.42513960   1.25570849 
H   -1.45649450  -1.21695963   2.84846648 
H   -0.11018642   1.18392414   2.92642454 
C   -0.19555058   1.37852676  -2.81847796 
H   -0.82379038   1.48564276  -3.68577436 
H    0.47449798   2.24887474  -2.89763604 
H   -0.86956716   1.60384929  -1.99303467 
H    0.10028648   0.08018698  -3.07175611 
*
