! EnGrad PBEh-3c
%output 
xyzfile=True 
end 
%scf 
maxiter 250 
end
%output
Print[P_Hirshfeld] = 1
end
% maxcore
4000
*xyz 1 1
Sc   1.52833491  -1.13968816  -1.63810396 
C    0.39745145  -0.59373880   0.19694972 
N   -0.47993492  -1.35636345   0.93042382 
C   -0.78282404  -0.77511917   2.13818179 
C   -0.13222854   0.39487757   2.18160432 
N    0.56220807   0.51456504   1.01129413 
C    1.42075700   1.64866602   0.61262763 
H    1.47158170   2.36970889   1.44517747 
H    1.01546064   2.13073240  -0.23013941 
H    2.44372147   1.30624440   0.44215990 
C   -0.97687737  -2.66057411   0.54787244 
H   -0.60882714  -2.93661132  -0.44116306 
H   -2.06204847  -2.64640956   0.51151333 
H   -0.65407038  -3.42405382   1.26300838 
H   -1.42766276  -1.23027040   2.85149216 
H   -0.11095567   1.14930981   2.93315505 
C   -0.32491059   1.69080002  -2.89749944 
H   -0.85112840   1.66398457  -3.73162057 
H    0.36263353   2.62078606  -2.92575990 
H   -0.84820750   1.69924199  -1.98488529 
H    0.05810410  -0.42496280  -3.21653351 
*
