! EnGrad PBEh-3c
%output 
xyzfile=True 
end 
%scf 
maxiter 250 
end
%output
Print[P_Hirshfeld] = 1
end
% maxcore
4000
*xyz 1 1
Sc   1.48255421  -1.09559258  -1.68451201 
C    0.40630215  -0.59311022   0.22115967 
N   -0.47393808  -1.34887992   0.92512413 
C   -0.78302135  -0.78013012   2.13688848 
C   -0.13120322   0.39631968   2.18634527 
N    0.56673400   0.51278138   1.00412942 
C    1.42105110   1.64775761   0.62409869 
H    1.45830393   2.36244631   1.44678581 
H    1.01345039   2.13634465  -0.24909923 
H    2.44416052   1.30358321   0.44708436 
C   -0.97546262  -2.65957596   0.54852980 
H   -0.61297679  -2.93205102  -0.44422934 
H   -2.06158774  -2.64882484   0.51182404 
H   -0.65078092  -3.42244747   1.25978201 
H   -1.43000744  -1.23481252   2.85619945 
H   -0.10596609   1.15251727   2.93937957 
C   -0.30911173   1.69933124  -2.87448850 
H   -0.86686713   1.64235968  -3.77209465 
H    0.39279404   2.57592717  -2.92482892 
H   -0.85088978   1.68715078  -1.97745764 
H    0.06744143  -0.39935655  -3.18065943 
*
