! EnGrad PBEh-3c
%output 
xyzfile=True 
end 
%scf 
maxiter 250 
end
%output
Print[P_Hirshfeld] = 1
end
% maxcore
4000
*xyz 1 1
Sc   1.39971006  -1.00775614  -1.77207597 
C    0.41255722  -0.58937871   0.25364355 
N   -0.46445583  -1.35263607   0.92910872 
C   -0.78481400  -0.77793970   2.13139534 
C   -0.12490670   0.40271387   2.17686055 
N    0.58009084   0.50938699   1.00348019 
C    1.41441600   1.63596194   0.63044094 
H    1.44377407   2.34926758   1.45063324 
H    1.01487895   2.14113600  -0.26668268 
H    2.43977273   1.29873674   0.44705623 
C   -0.97084034  -2.65623959   0.54634917 
H   -0.61848361  -2.92756254  -0.44519647 
H   -2.06079722  -2.65092570   0.50952716 
H   -0.64864503  -3.41719111   1.25686461 
H   -1.43715841  -1.24084505   2.85996973 
H   -0.10192685   1.16108161   2.94716436 
C   -0.28036864   1.68010281  -2.87319360 
H   -0.88793339   1.60686717  -3.80696569 
H    0.43676929   2.49153332  -2.92105669 
H   -0.87038165   1.66213958  -1.95153482 
H    0.11096967  -0.31517116  -3.10604824 
*
