! EnGrad PBEh-3c
%output 
xyzfile=True 
end 
%scf 
maxiter 250 
end
%output
Print[P_Hirshfeld] = 1
end
% maxcore
4000
*xyz 1 1
Sc   1.33962046  -0.92566132  -1.83750217 
C    0.41005130  -0.59679334   0.25117535 
N   -0.45297653  -1.35895979   0.94456084 
C   -0.79054190  -0.76660792   2.13243870 
C   -0.12545193   0.41379801   2.17432068 
N    0.59108012   0.50133267   1.01072285 
C    1.41102210   1.62931300   0.62611649 
H    1.44081035   2.33655049   1.44933255 
H    1.01926209   2.13746423  -0.26278947 
H    2.43036231   1.29504505   0.43939176 
C   -0.97102735  -2.65574589   0.54583788 
H   -0.61816187  -2.92761064  -0.44512813 
H   -2.05764278  -2.64930802   0.50609975 
H   -0.64989092  -3.41225151   1.25578728 
H   -1.44071322  -1.23847567   2.85392485 
H   -0.10287397   1.16394023   2.94281230 
C   -0.27391680   1.60410166  -2.86623150 
H   -0.90215963   1.58520949  -3.80694473 
H    0.46876559   2.41730743  -2.92056157 
H   -0.87828414   1.64015041  -1.95549713 
H    0.15663083  -0.18787732  -3.03939707 
*
