! EnGrad PBEh-3c
%output 
xyzfile=True 
end 
%scf 
maxiter 250 
end
%output
Print[P_Hirshfeld] = 1
end
% maxcore
4000
*xyz 1 1
Sc   1.24899233  -0.74401805  -1.91985313 
C    0.40274168  -0.60506404   0.23525550 
N   -0.44491369  -1.36672506   0.95570326 
C   -0.79710810  -0.76669353   2.13696987 
C   -0.12640247   0.42450518   2.17366611 
N    0.59615564   0.48787382   1.00996978 
C    1.40942147   1.61349763   0.62440412 
H    1.44155998   2.32788181   1.44773962 
H    1.01766630   2.12574398  -0.25411587 
H    2.42847839   1.29142258   0.42764073 
C   -0.96713395  -2.65068686   0.54889524 
H   -0.61091370  -2.92434387  -0.44193943 
H   -2.05642133  -2.64018127   0.50445758 
H   -0.65059098  -3.41641011   1.25457460 
H   -1.44644969  -1.22636653   2.84636840 
H   -0.10548721   1.17391157   2.93569065 
C   -0.23232669   1.46136772  -2.85286193 
H   -0.87228214   1.53231390  -3.74577597 
H    0.48588012   2.28648439  -2.91283889 
H   -0.88040422   1.61416662  -1.98026878 
H    0.16637134   0.00963474  -2.99670281 
*
