! EnGrad PBEh-3c
%output 
xyzfile=True 
end 
%scf 
maxiter 250 
end
%output
Print[P_Hirshfeld] = 1
end
% maxcore
4000
*xyz 1 1
Sc   1.24639977  -0.68221283  -1.91328934 
C    0.39732990  -0.60504375   0.22981800 
N   -0.44866813  -1.36684215   0.95232501 
C   -0.78865700  -0.76301315   2.13294555 
C   -0.12973403   0.41398517   2.16952230 
N    0.59089630   0.48719059   1.00833394 
C    1.41190873   1.60992967   0.62359791 
H    1.44716024   2.32762824   1.44664047 
H    1.01283088   2.12114037  -0.25000043 
H    2.43378433   1.28977510   0.42219229 
C   -0.96766098  -2.65284041   0.54996526 
H   -0.60500071  -2.92308561  -0.43777577 
H   -2.05617995  -2.63499578   0.50474923 
H   -0.65264848  -3.42134094   1.25520777 
H   -1.45274090  -1.22212806   2.84871465 
H   -0.10784515   1.18049055   2.93205230 
C   -0.21357490   1.41783429  -2.83491443 
H   -0.84547017   1.50836453  -3.71176370 
H    0.47785749   2.26756643  -2.90539561 
H   -0.87392762   1.60972100  -1.98930054 
H    0.13137165   0.04744679  -3.03650061 
*
