! EnGrad PBEh-3c
%output 
xyzfile=True 
end 
%scf 
maxiter 250 
end
%output
Print[P_Hirshfeld] = 1
end
% maxcore
4000
*xyz 1 1
Sc   1.23643552  -0.47281101  -1.90274083 
C    0.37921319  -0.60221901   0.22283076 
N   -0.45660314  -1.36695387   0.93944918 
C   -0.78220767  -0.77108472   2.13193710 
C   -0.13074184   0.40750877   2.16677310 
N    0.57925891   0.48335728   0.99957796 
C    1.42001009   1.60140743   0.62271226 
H    1.46313047   2.32256848   1.44129353 
H    0.99830462   2.10893286  -0.23978624 
H    2.44711349   1.28279872   0.40571416 
C   -0.97043619  -2.66108654   0.55349184 
H   -0.58704173  -2.91939141  -0.42650254 
H   -2.05479987  -2.62050669   0.50466447 
H   -0.66001218  -3.43426486   1.25691135 
H   -1.46551150  -1.20454391   2.84787031 
H   -0.11581066   1.19217242   2.91290539 
C   -0.15225209   1.28410120  -2.77899386 
H   -0.77171061   1.43105995  -3.62334209 
H    0.46642770   2.20397307  -2.87899580 
H   -0.85909234   1.58974413  -2.00200489 
H    0.02561287   0.15883631  -3.15644779 
*
