! EnGrad PBEh-3c
%output 
xyzfile=True 
end 
%scf 
maxiter 250 
end
%output
Print[P_Hirshfeld] = 1
end
% maxcore
4000
*xyz 0 1
C   -1.74741906   0.17737071  -0.26873472 
C   -1.75964777  -0.73178186  -1.31140215 
C   -1.17926152  -1.97481948  -1.14193417 
C   -0.49206647  -2.26496577   0.02159666 
C   -1.17400042  -0.18277660   0.93399056 
C   -0.46011419  -1.35494823   1.06093414 
H   -2.29217666   1.09937793  -0.45205186 
H   -2.31316993  -0.52329665  -2.22045567 
H   -1.29041128  -2.72796321  -1.90918031 
H    0.10403834  -1.63567369   1.94607118 
H   -0.03739628  -3.24330269   0.13913838 
Pd   1.40423778   1.17269975  -0.00562450 
O    2.71053203   0.93591242  -1.57718910 
O    2.63115676  -0.47252218   0.04489909 
O    0.34183880   2.89648739   0.00242329 
C    0.11727952   3.00684267   1.21936352 
O    0.63012782   2.15750528   2.01401176 
H   -1.57898122   0.80591506   2.52806730 
C    3.07794811  -0.15630454  -1.08592215 
H    3.85806034  -0.76949364  -1.54602090 
H   -0.55057113   3.78572732   1.60802679 
*
