! EnGrad PBEh-3c
%output 
xyzfile=True 
end 
%scf 
maxiter 250 
end
%output
Print[P_Hirshfeld] = 1
end
% maxcore
4000
*xyz 0 1
C   -1.64624432   0.21418613  -0.34808352 
C   -2.05553037  -0.83244144  -1.16838900 
C   -1.71017645  -2.16716242  -0.93662065 
C   -0.79544417  -2.36019535   0.09727227 
C   -0.90309007  -0.07502688   0.77785382 
C   -0.38221464  -1.33869341   0.93536845 
H   -1.88017532   1.22491078  -0.66799130 
H   -2.69741423  -0.64768453  -2.02255085 
H   -2.13480592  -3.02434093  -1.53771072 
H    0.36717651  -1.56359658   1.67859889 
H   -0.44591666  -3.37201359   0.25801094 
Pd   1.41417379   1.10539880   0.02762172 
O    3.21311933   1.32663091  -1.29061706 
O    2.59060030  -0.45925009  -0.19546166 
O    0.43495508   2.77768604   0.09584931 
C    0.04725420   2.93351843   1.32566460 
O    0.43647915   2.16640276   2.20148971 
H   -0.87302902   0.58542561   1.61069444 
C    3.38482004   0.12938258  -0.99534787 
H    4.28371644  -0.38989019  -1.35962940 
H   -0.65816496   3.75871272   1.51097238 
*
