! EnGrad PBEh-3c
%output 
xyzfile=True 
end 
%scf 
maxiter 250 
end
%output
Print[P_Hirshfeld] = 1
end
% maxcore
4000
*xyz 0 1
C   -1.65155651   0.20884052  -0.38843694 
C   -2.09495370  -0.84690185  -1.16451060 
C   -1.76410308  -2.17223193  -0.90199785 
C   -0.82980194  -2.38796374   0.10179113 
C   -0.87156709  -0.09395969   0.72427009 
C   -0.37166434  -1.37324384   0.91571394 
H   -1.84553011   1.23204120  -0.67217167 
H   -2.72846444  -0.64998250  -1.99425230 
H   -2.20105662  -3.01955299  -1.47831061 
H    0.38302963  -1.55150494   1.66247510 
H   -0.48125880  -3.37278775   0.27495246 
Pd   1.41605358   1.09733235   0.00846829 
O    3.24905692   1.36086192  -1.24555373 
O    2.60021432  -0.45819122  -0.22627485 
O    0.43769152   2.77093795   0.10772413 
C    0.05073613   2.92212242   1.33955820 
O    0.42109219   2.18154829   2.22413070 
H   -0.79814163   0.57888546   1.52995176 
C    3.41759486   0.15942887  -0.98608242 
H    4.31897685  -0.35362622  -1.33476317 
H   -0.66737699   3.75817677   1.49948731 
*
