! EnGrad PBEh-3c
%output 
xyzfile=True 
end 
%scf 
maxiter 250 
end
%output
Print[P_Hirshfeld] = 1
end
% maxcore
4000
*xyz 0 1
C   -1.64972406   0.19769062  -0.42384777 
C   -2.13508590  -0.86308929  -1.16290294 
C   -1.81784997  -2.17930902  -0.86852242 
C   -0.86492180  -2.41595578   0.10533870 
C   -0.83627644  -0.11036953   0.66999066 
C   -0.36437897  -1.40039527   0.89197357 
H   -1.81404229   1.23996545  -0.67732534 
H   -2.76950277  -0.65085992  -1.97741259 
H   -2.26577231  -3.00966396  -1.41600697 
H    0.39851223  -1.54266667   1.64789838 
H   -0.51358668  -3.39014558   0.29309062 
Pd   1.41584833   1.09164153  -0.00858045 
O    3.27976910   1.39781188  -1.20038632 
O    2.61086326  -0.45886295  -0.26353186 
O    0.43588244   2.76479582   0.11764165 
C    0.05303702   2.91593165   1.34929459 
O    0.40389949   2.19556251   2.25404549 
H   -0.71741812   0.58326728   1.45712191 
C    3.45470551   0.18751194  -0.96742195 
H    4.35593057  -0.31967410  -1.31272299 
H   -0.67174717   3.75432923   1.48719947 
*
