! EnGrad PBEh-3c
%output 
xyzfile=True 
end 
%scf 
maxiter 250 
end
%output
Print[P_Hirshfeld] = 1
end
% maxcore
4000
*xyz 0 1
C   -1.63770907   0.18069555  -0.46754337 
C   -2.19190980  -0.88066380  -1.15886983 
C   -1.89228522  -2.18864802  -0.82120926 
C   -0.91182657  -2.45262410   0.11699103 
C   -0.78211098  -0.13010591   0.59328265 
C   -0.35459157  -1.42964084   0.85570127 
H   -1.77304191   1.24539240  -0.68666482 
H   -2.84153480  -0.65258115  -1.96647939 
H   -2.36299377  -2.99963117  -1.32938892 
H    0.41623729  -1.53528577   1.62386352 
H   -0.55933682  -3.43368250   0.31937392 
Pd   1.41624619   1.08547015  -0.03404614 
O    3.32036154   1.44660803  -1.13180246 
O    2.62767626  -0.46072189  -0.32030337 
O    0.43044233   2.75482326   0.13468832 
C    0.05634777   2.90871336   1.36079596 
O    0.37822850   2.21997578   2.29603967 
H   -0.59755888   0.59679262   1.35843314 
C    3.50719146   0.23261896  -0.93706702 
H    4.41338777  -0.27212365  -1.28318082 
H   -0.67417136   3.74741309   1.46993297 
*
