! EnGrad PBEh-3c
%output 
xyzfile=True 
end 
%scf 
maxiter 250 
end
%output
Print[P_Hirshfeld] = 1
end
% maxcore
4000
*xyz 0 1
C   -1.74974841   0.18996546  -0.28245566 
C   -1.77564870  -0.74882697  -1.31413143 
C   -1.20687676  -1.99024668  -1.13885786 
C   -0.50640460  -2.28179563   0.01481313 
C   -1.16333778  -0.14442410   0.96620572 
C   -0.44658966  -1.35982354   1.06207832 
H   -2.26861614   1.10391567  -0.46281816 
H   -2.33508736  -0.53071871  -2.21270770 
H   -1.33559918  -2.74561779  -1.89150250 
H    0.11661346  -1.63109628   1.92893185 
H   -0.05954786  -3.25259883   0.14440625 
Pd   1.40538158   1.17940775   0.02278053 
O    2.73287915   0.95438751  -1.57442192 
O    2.61756691  -0.47271457   0.03213397 
O    0.34855760   2.89591178  -0.02811499 
C    0.12742019   2.97181502   1.26728319 
O    0.60963983   2.17250817   1.99996632 
H   -1.54442447   0.79191490   2.48143408 
C    3.10974081  -0.13682199  -1.07405984 
H    3.88143992  -0.75364339  -1.54402829 
H   -0.55769591   3.78755544   1.60299037 
*
