! EnGrad PBEh-3c
%output 
xyzfile=True 
end 
%scf 
maxiter 250 
end
%output
Print[P_Hirshfeld] = 1
end
% maxcore
4000
*xyz 0 1
C   -1.68797244   0.20325328  -0.27636277 
C   -1.90606207  -0.79858307  -1.25502358 
C   -1.44306296  -2.10096861  -1.06961583 
C   -0.63761344  -2.32045263   0.04328735 
C   -1.05209285  -0.02489350   0.99095489 
C   -0.42748648  -1.30312337   1.00881147 
H   -2.08695049   1.17904929  -0.58008401 
H   -2.52349063  -0.59722734  -2.14438798 
H   -1.73153533  -2.91226223  -1.74953636 
H    0.25187102  -1.61077544   1.80949027 
H   -0.24479860  -3.34085616   0.19138952 
Pd   1.41667102   1.17794308   0.08746647 
O    2.96418271   1.12376744  -1.47674475 
O    2.57652911  -0.47177956  -0.07108262 
O    0.38599178   2.85027480   0.03067712 
C    0.08702815   2.96043723   1.24881496 
O    0.53633831   2.14135542   2.09756310 
H   -1.23636219   0.66331462   2.05001627 
C    3.26732264   0.00560034  -1.01674659 
H    4.08407849  -0.58881245  -1.48065329 
H   -0.59660394   3.76128988   1.56303732 
*
