! EnGrad PBEh-3c
%output 
xyzfile=True 
end 
%scf 
maxiter 250 
end
%output
Print[P_Hirshfeld] = 1
end
% maxcore
4000
*xyz 0 1
C   -1.64792915   0.20928286  -0.29774438 
C   -2.00440192  -0.81753568  -1.19135422 
C   -1.62491489  -2.15471365  -0.98578915 
C   -0.74333770  -2.33738024   0.08301999 
C   -0.95600804  -0.04433986   0.86808473 
C   -0.40592039  -1.29961751   0.96074256 
H   -1.94501648   1.21707817  -0.65069520 
H   -2.64847176  -0.63713355  -2.06785037 
H   -2.01703007  -3.00622011  -1.61602190 
H    0.33816968  -1.58336941   1.71785868 
H   -0.38437410  -3.37285301   0.23425411 
Pd   1.41840186   1.13262378   0.05455535 
O    3.14246362   1.26181407  -1.35808788 
O    2.58281586  -0.46346391  -0.15222606 
O    0.42212163   2.79908121   0.08199553 
C    0.04205324   2.97128660   1.27722822 
O    0.47756858   2.14121554   2.18016589 
H   -0.99431400   0.59215100   1.73672711 
C    3.34426255   0.09253620  -1.00045000 
H    4.22646198  -0.45224913  -1.40219424 
H   -0.62983599   3.74613710   1.52701244 
*
