21
Coordinates from ORCA-job reaction-5-ieip_optts_Compound_2_IRC_F E -1104.435251381169
  Sc      0.746656      0.072858     -1.916135
  C       0.264982     -0.143861      0.368175
  N      -0.448990     -1.126088      0.948524
  C      -0.505723     -0.962627      2.306481
  C       0.193598      0.157918      2.588834
  N       0.652311      0.640491      1.392250
  C       1.470582      1.830733      1.272438
  H       1.073332      2.621910      1.903963
  H       1.455943      2.188363      0.244530
  H       2.499614      1.627705      1.563278
  C      -1.080426     -2.232828      0.252271
  H      -1.087893     -2.038973     -0.819124
  H      -2.109358     -2.343409      0.586966
  H      -0.542750     -3.160003      0.440652
  H      -1.032830     -1.639563      2.956988
  H       0.390429      0.639703      3.531340
  C      -0.315226      0.850231     -3.490615
  H      -0.479407      0.709489     -4.556053
  H       0.514143      1.647576     -3.397276
  H      -1.228482      1.293328     -3.068599
  H      -0.419126     -0.722273     -3.037601
21
Coordinates from ORCA-job reaction-5-ieip_optts_Compound_2_IRC_F E -1104.438071177600
  Sc      0.729107      0.057813     -1.945984
  C       0.263061     -0.141677      0.366836
  N      -0.449235     -1.125688      0.948199
  C      -0.505199     -0.962704      2.306700
  C       0.193933      0.157546      2.589250
  N       0.652078      0.640951      1.392441
  C       1.470606      1.830544      1.272436
  H       1.073612      2.621999      1.903656
  H       1.455990      2.188488      0.244819
  H       2.499790      1.627633      1.563313
  C      -1.080312     -2.232707      0.251885
  H      -1.087949     -2.039131     -0.819640
  H      -2.109287     -2.343315      0.586814
  H      -0.542724     -3.159881      0.440848
  H      -1.032615     -1.639415      2.956787
  H       0.390594      0.639777      3.531564
  C      -0.305696      0.883991     -3.492075
  H      -0.474396      0.705164     -4.545814
  H       0.513832      1.665784     -3.402452
  H      -1.228356      1.295767     -3.069026
  H      -0.411801     -0.761083     -3.010503
21
Coordinates from ORCA-job reaction-5-ieip_optts_Compound_2_IRC_F E -1104.441792852929
  Sc      0.720505      0.040663     -1.960127
  C       0.261113     -0.139911      0.364200
  N      -0.450012     -1.125236      0.946929
  C      -0.504256     -0.962419      2.306259
  C       0.194621      0.157150      2.587909
  N       0.651596      0.641846      1.391000
  C       1.470462      1.830359      1.272088
  H       1.073799      2.622266      1.903520
  H       1.455974      2.188556      0.245019
  H       2.499767      1.627415      1.563411
  C      -1.079912     -2.231946      0.251630
  H      -1.088614     -2.039550     -0.820002
  H      -2.109094     -2.343165      0.586213
  H      -0.542667     -3.159514      0.441099
  H      -1.032380     -1.639515      2.956548
  H       0.390915      0.639696      3.531569
  C      -0.297759      0.910361     -3.491131
  H      -0.469095      0.704225     -4.545069
  H       0.513421      1.696848     -3.410825
  H      -1.230383      1.307238     -3.068564
  H      -0.410000     -0.815436     -2.983133
21
Coordinates from ORCA-job reaction-5-ieip_optts_Compound_2_IRC_F E -1104.445895063558
  Sc      0.711135      0.023217     -1.974522
  C       0.259019     -0.138614      0.363128
  N      -0.449988     -1.123435      0.946381
  C      -0.503319     -0.962119      2.304641
  C       0.195156      0.156878      2.586797
  N       0.650656      0.642049      1.389415
  C       1.470642      1.830742      1.271843
  H       1.073991      2.622327      1.903150
  H       1.456043      2.189010      0.244805
  H       2.499465      1.627122      1.563413
  C      -1.080270     -2.232078      0.250798
  H      -1.089433     -2.040094     -0.820531
  H      -2.109013     -2.343006      0.585623
  H      -0.542512     -3.159058      0.441370
  H      -1.031877     -1.639434      2.956035
  H       0.391344      0.639414      3.530661
  C      -0.290251      0.937294     -3.488962
  H      -0.462706      0.704953     -4.540339
  H       0.508060      1.725744     -3.420555
  H      -1.228204      1.318533     -3.070563
  H      -0.407790     -0.868955     -2.955511
21
Coordinates from ORCA-job reaction-5-ieip_optts_Compound_2_IRC_F E -1104.450116900922
  Sc      0.703523      0.004264     -1.985212
  C       0.257457     -0.136944      0.360644
  N      -0.450723     -1.122849      0.944783
  C      -0.503093     -0.962626      2.303841
  C       0.196067      0.157380      2.585907
  N       0.650031      0.642827      1.387712
  C       1.470469      1.830913      1.271181
  H       1.074115      2.622522      1.902801
  H       1.456180      2.189584      0.244609
  H       2.499261      1.626760      1.563399
  C      -1.080232     -2.231689      0.250508
  H      -1.090432     -2.040794     -0.821298
  H      -2.109151     -2.342887      0.585030
  H      -0.542395     -3.158524      0.441588
  H      -1.031121     -1.639177      2.955170
  H       0.391865      0.639092      3.529574
  C      -0.283605      0.959769     -3.489146
  H      -0.455334      0.706367     -4.533439
  H       0.502683      1.757800     -3.431216
  H      -1.227646      1.332121     -3.072024
  H      -0.406353     -0.922632     -2.928717
21
Coordinates from ORCA-job reaction-5-ieip_optts_Compound_2_IRC_F E -1104.454293192690
  Sc      0.696724     -0.015329     -1.994240
  C       0.255770     -0.135691      0.358881
  N      -0.451158     -1.121624      0.943433
  C      -0.502501     -0.962557      2.302379
  C       0.196678      0.157453      2.584327
  N       0.649266      0.643540      1.385730
  C       1.470523      1.831292      1.270544
  H       1.074219      2.622665      1.902324
  H       1.456386      2.190359      0.244148
  H       2.498836      1.626382      1.563250
  C      -1.080658     -2.231596      0.249727
  H      -1.091584     -2.041759     -0.821934
  H      -2.109269     -2.342764      0.584432
  H      -0.542259     -3.157971      0.441808
  H      -1.030287     -1.638972      2.954130
  H       0.392540      0.638810      3.528194
  C      -0.276511      0.983531     -3.484272
  H      -0.447651      0.707363     -4.527784
  H       0.494284      1.789144     -3.443076
  H      -1.225388      1.345871     -3.074736
  H      -0.405579     -0.976163     -2.902802
21
Coordinates from ORCA-job reaction-5-ieip_optts_Compound_2_IRC_F E -1104.458288643334
  Sc      0.690955     -0.035840     -2.000869
  C       0.254519     -0.134397      0.356319
  N      -0.451998     -1.120984      0.941741
  C      -0.502005     -0.962468      2.300895
  C       0.197334      0.157753      2.582581
  N       0.648564      0.644401      1.383760
  C       1.470383      1.831746      1.269478
  H       1.074282      2.622863      1.901801
  H       1.456694      2.191280      0.243604
  H       2.498512      1.625945      1.563049
  C      -1.080908     -2.231430      0.249297
  H      -1.092903     -2.042918     -0.822877
  H      -2.109613     -2.342671      0.583891
  H      -0.542186     -3.157364      0.441992
  H      -1.029378     -1.638798      2.952914
  H       0.393348      0.638568      3.526573
  C      -0.269754      1.003825     -3.482701
  H      -0.438670      0.708724     -4.517547
  H       0.485334      1.822243     -3.455541
  H      -1.224394      1.361019     -3.077008
  H      -0.405339     -1.029170     -2.877901
21
Coordinates from ORCA-job reaction-5-ieip_optts_Compound_2_IRC_F E -1104.462034552375
  Sc      0.685130     -0.056162     -2.006492
  C       0.253358     -0.133551      0.354122
  N      -0.452606     -1.120058      0.939956
  C      -0.501479     -0.962174      2.299070
  C       0.197838      0.157966      2.580365
  N       0.647916      0.645270      1.381291
  C       1.470437      1.832262      1.268385
  H       1.074317      2.623041      1.901131
  H       1.457090      2.192395      0.242755
  H       2.497992      1.625534      1.562662
  C      -1.081553     -2.231397      0.248438
  H      -1.094370     -2.044404     -0.823625
  H      -2.109979     -2.342604      0.583412
  H      -0.542117     -3.156844      0.442205
  H      -1.028383     -1.638618      2.951478
  H       0.394305      0.638417      3.524667
  C      -0.262201      1.025837     -3.474485
  H      -0.429610      0.708622     -4.509610
  H       0.474256      1.854228     -3.468809
  H      -1.221902      1.375668     -3.080198
  H      -0.405388     -1.081311     -2.854066
21
Coordinates from ORCA-job reaction-5-ieip_optts_Compound_2_IRC_F E -1104.465502257072
  Sc      0.679408     -0.076751     -2.010242
  C       0.252566     -0.132935      0.351390
  N      -0.453319     -1.119385      0.938057
  C      -0.500959     -0.961704      2.296990
  C       0.198294      0.158292      2.577841
  N       0.647303      0.646036      1.378707
  C       1.470364      1.832906      1.266868
  H       1.074318      2.623192      1.900305
  H       1.457615      2.193670      0.241724
  H       2.497573      1.625109      1.562144
  C      -1.082157     -2.231538      0.247894
  H      -1.096022     -2.046170     -0.824654
  H      -2.110528     -2.342571      0.583039
  H      -0.542182     -3.156325      0.442389
  H      -1.027351     -1.638449      2.949856
  H       0.395388      0.638353      3.522387
  C      -0.254826      1.045157     -3.470698
  H      -0.419045      0.708663     -4.495934
  H       0.463200      1.887431     -3.482255
  H      -1.220594      1.391016     -3.082611
  H      -0.405520     -1.132738     -2.831167
21
Coordinates from ORCA-job reaction-5-ieip_optts_Compound_2_IRC_F E -1104.468680899878
  Sc      0.672272     -0.096368     -2.013809
  C       0.251974     -0.132710      0.348702
  N      -0.453986     -1.118896      0.935923
  C      -0.500550     -0.961199      2.294724
  C       0.198732      0.158756      2.574921
  N       0.646868      0.646830      1.375659
  C       1.470446      1.833523      1.265118
  H       1.074256      2.623285      1.899265
  H       1.458254      2.195113      0.240379
  H       2.497029      1.624739      1.561374
  C      -1.083032     -2.231754      0.247067
  H      -1.097855     -2.048355     -0.825473
  H      -2.111146     -2.342579      0.582815
  H      -0.542314     -3.155994      0.442625
  H      -1.026254     -1.638209      2.947980
  H       0.396597      0.638425      3.519703
  C      -0.246234      1.066939     -3.460002
  H      -0.408332      0.706758     -4.484848
  H       0.450996      1.919619     -3.496231
  H      -1.217821      1.405459     -3.085490
  H      -0.405382     -1.183572     -2.808995
21
Coordinates from ORCA-job reaction-5-ieip_optts_Compound_2_IRC_F E -1104.471518594500
  Sc      0.664401     -0.115121     -2.015674
  C       0.251646     -0.132835      0.345520
  N      -0.454640     -1.118627      0.933862
  C      -0.499832     -0.960076      2.292141
  C       0.198863      0.158843      2.571373
  N       0.646523      0.647416      1.372463
  C       1.470427      1.834188      1.262923
  H       1.074133      2.623262      1.897951
  H       1.459038      2.196685      0.238723
  H       2.496622      1.624401      1.560361
  C      -1.083928     -2.232262      0.246576
  H      -1.099884     -2.050935     -0.826490
  H      -2.111946     -2.342649      0.582802
  H      -0.542647     -3.155824      0.442861
  H      -1.025268     -1.638036      2.946037
  H       0.397947      0.638769      3.516719
  C      -0.238085      1.086002     -3.455574
  H      -0.395900      0.705431     -4.467072
  H       0.439876      1.952459     -3.509812
  H      -1.216193      1.420050     -3.087086
  H      -0.404899     -1.233223     -2.787999
21
Coordinates from ORCA-job reaction-5-ieip_optts_Compound_2_IRC_F E -1104.473978981497
  Sc      0.654222     -0.131197     -2.018247
  C       0.251337     -0.133353      0.342587
  N      -0.455176     -1.118577      0.931448
  C      -0.499870     -0.959994      2.289426
  C       0.199625      0.160052      2.567969
  N       0.646380      0.647931      1.368690
  C       1.470610      1.834758      1.260460
  H       1.073917      2.623095      1.896321
  H       1.459915      2.198306      0.236730
  H       2.496103      1.624158      1.558990
  C      -1.085141     -2.232962      0.245863
  H      -1.102066     -2.053997     -0.827129
  H      -2.112777     -2.342791      0.583046
  H      -0.543126     -3.155966      0.443193
  H      -1.024213     -1.637627      2.943879
  H       0.399316      0.639218      3.513187
  C      -0.228583      1.108794     -3.440984
  H      -0.384037      0.701475     -4.455512
  H       0.428401      1.982593     -3.523291
  H      -1.212559      1.432988     -3.089058
  H      -0.403557     -1.281021     -2.768127
21
Coordinates from ORCA-job reaction-5-ieip_optts_Compound_2_IRC_F E -1104.476016514621
  Sc      0.644130     -0.145379     -2.018444
  C       0.251178     -0.134054      0.338941
  N      -0.455782     -1.118818      0.929711
  C      -0.498383     -0.957546      2.286815
  C       0.199000      0.158958      2.563489
  N       0.646215      0.648106      1.365272
  C       1.470612      1.835251      1.257522
  H       1.073616      2.622801      1.894410
  H       1.460888      2.199906      0.234396
  H       2.495853      1.623948      1.557351
  C      -1.086239     -2.233916      0.245634
  H      -1.104357     -2.057413     -0.827988
  H      -2.113849     -2.343051      0.583630
  H      -0.543830     -3.156429      0.443581
  H      -1.023463     -1.637397      2.941889
  H       0.400816      0.640132      3.509661
  C      -0.221117      1.125815     -3.439305
  H      -0.370474      0.700298     -4.434287
  H       0.419710      2.012147     -3.535019
  H      -1.211264      1.446099     -3.088969
  H      -0.401500     -1.325281     -2.750425
21
Coordinates from ORCA-job reaction-5-ieip_optts_Compound_2_IRC_F E -1104.476408059400
  Sc      0.641776     -0.147291     -2.018919
  C       0.251053     -0.134270      0.338595
  N      -0.455773     -1.118794      0.928963
  C      -0.499083     -0.958573      2.286424
  C       0.199718      0.160155      2.563386
  N       0.646239      0.648120      1.364210
  C       1.470647      1.835316      1.257042
  H       1.073560      2.622695      1.893962
  H       1.461059      2.200167      0.233903
  H       2.495750      1.623927      1.556960
  C      -1.086555     -2.234177      0.245638
  H      -1.104791     -2.058115     -0.828028
  H      -2.114004     -2.343119      0.583779
  H      -0.544007     -3.156550      0.443683
  H      -1.023136     -1.637064      2.941342
  H       0.400997      0.640125      3.508648
  C      -0.219479      1.130108     -3.435750
  H      -0.368334      0.699365     -4.432700
  H       0.417965      2.016753     -3.537110
  H      -1.210385      1.448153     -3.089190
  H      -0.400844     -1.332994     -2.747333
21
Coordinates from ORCA-job reaction-5-ieip_optts_Compound_2_IRC_F E -1104.477372846155
  Sc      0.635009     -0.153042     -2.019782
  C       0.250784     -0.134851      0.337014
  N      -0.455944     -1.118913      0.927410
  C      -0.499721     -0.959465      2.285066
  C       0.200664      0.161676      2.561910
  N       0.646241      0.648138      1.361638
  C       1.470728      1.835535      1.255376
  H       1.073364      2.622399      1.892625
  H       1.461589      2.200951      0.232405
  H       2.495524      1.623845      1.555782
  C      -1.087401     -2.234952      0.245602
  H      -1.106115     -2.060264     -0.828233
  H      -2.114560     -2.343337      0.584288
  H      -0.544549     -3.156963      0.444006
  H      -1.022498     -1.636505      2.940037
  H       0.401709      0.640480      3.506124
  C      -0.214943      1.140803     -3.429384
  H      -0.361454      0.697854     -4.424720
  H       0.413299      2.030974     -3.543090
  H      -1.208679      1.454681     -3.089367
  H      -0.398825     -1.355734     -2.738316
21
Coordinates from ORCA-job reaction-5-ieip_optts_Compound_2_IRC_F E -1104.478324549448
  Sc      0.627704     -0.159083     -2.019983
  C       0.250494     -0.135491      0.334868
  N      -0.456193     -1.119106      0.926086
  C      -0.499497     -0.959031      2.283732
  C       0.200861      0.161929      2.559726
  N       0.646148      0.648013      1.359009
  C       1.470759      1.835711      1.253305
  H       1.073106      2.622078      1.891037
  H       1.462194      2.201804      0.230569
  H       2.495366      1.623743      1.554358
  C      -1.088303     -2.235832      0.245654
  H      -1.107639     -2.062807     -0.828529
  H      -2.115312     -2.343644      0.585001
  H      -0.545206     -3.157582      0.444441
  H      -1.021889     -1.635966      2.938653
  H       0.402579      0.641058      3.503343
  C      -0.210545      1.151403     -3.425705
  H      -0.353479      0.697226     -4.413503
  H       0.408779      2.046468     -3.549136
  H      -1.207423      1.462153     -3.089092
  H      -0.396196     -1.380184     -2.728797
21
Coordinates from ORCA-job reaction-5-ieip_optts_Compound_2_IRC_F E -1104.479198207289
  Sc      0.619830     -0.164290     -2.020464
  C       0.250038     -0.136256      0.332975
  N      -0.456621     -1.119612      0.924669
  C      -0.499357     -0.958846      2.281880
  C       0.201389      0.162585      2.557080
  N       0.646184      0.648075      1.356338
  C       1.470791      1.835806      1.251033
  H       1.072821      2.621671      1.889206
  H       1.462790      2.202571      0.228589
  H       2.495124      1.623630      1.552703
  C      -1.089329     -2.236825      0.245717
  H      -1.109248     -2.065604     -0.828601
  H      -2.116064     -2.344008      0.585870
  H      -0.545984     -3.158286      0.444999
  H      -1.021431     -1.635572      2.937488
  H       0.403548      0.641854      3.500669
  C      -0.206048      1.163404     -3.418588
  H      -0.345826      0.695840     -4.404755
  H       0.404388      2.061212     -3.554890
  H      -1.205722      1.469584     -3.088942
  H      -0.392849     -1.404284     -2.719436
21
Coordinates from ORCA-job reaction-5-ieip_optts_Compound_2_IRC_F E -1104.479994525409
  Sc      0.611763     -0.169086     -2.020529
  C       0.249564     -0.137058      0.330589
  N      -0.456944     -1.119944      0.923309
  C      -0.499216     -0.958602      2.280509
  C       0.201752      0.163022      2.554768
  N       0.646037      0.647825      1.353388
  C       1.470810      1.835904      1.248516
  H       1.072498      2.621258      1.887142
  H       1.463385      2.203304      0.226287
  H       2.494944      1.623486      1.550822
  C      -1.090448     -2.237995      0.245938
  H      -1.110974     -2.068670     -0.828729
  H      -2.116974     -2.344472      0.586939
  H      -0.546867     -3.159183      0.445701
  H      -1.020812     -1.634931      2.936146
  H       0.404534      0.642635      3.497563
  C      -0.201978      1.173990     -3.414675
  H      -0.337657      0.695870     -4.393061
  H       0.400467      2.075963     -3.560106
  H      -1.204589      1.477600     -3.088397
  H      -0.388754     -1.428209     -2.710233
21
Coordinates from ORCA-job reaction-5-ieip_optts_Compound_2_IRC_F E -1104.480710362990
  Sc      0.603282     -0.172998     -2.020899
  C       0.248834     -0.138009      0.328700
  N      -0.457510     -1.120672      0.921843
  C      -0.499019     -0.958412      2.278545
  C       0.202373      0.163717      2.551822
  N       0.646049      0.647835      1.350425
  C       1.470762      1.835853      1.245759
  H       1.072159      2.620766      1.884764
  H       1.463949      2.203911      0.223798
  H       2.494667      1.623316      1.548655
  C      -1.091683     -2.239257      0.246236
  H      -1.112799     -2.072026     -0.828603
  H      -2.117899     -2.345014      0.588190
  H      -0.547896     -3.160170      0.446576
  H      -1.020356     -1.634470      2.935075
  H       0.405645      0.643655      3.494579
  C      -0.197901      1.186290     -3.406534
  H      -0.330059      0.694944     -4.384644
  H       0.396707      2.089768     -3.564880
  H      -1.202940      1.485611     -3.088078
  H      -0.383768     -1.451657     -2.701225
21
Coordinates from ORCA-job reaction-5-ieip_optts_Compound_2_IRC_F E -1104.481325289856
  Sc      0.595125     -0.176519     -2.020612
  C       0.248163     -0.138935      0.325981
  N      -0.457845     -1.120987      0.920521
  C      -0.499103     -0.958525      2.277531
  C       0.202876      0.164363      2.549831
  N       0.645718      0.647316      1.347134
  C       1.470750      1.835881      1.242825
  H       1.071798      2.620306      1.882158
  H       1.464448      2.204411      0.220972
  H       2.494458      1.623097      1.546265
  C      -1.093025     -2.240748      0.246739
  H      -1.114691     -2.075563     -0.828558
  H      -2.118987     -2.345667      0.589640
  H      -0.549015     -3.161347      0.447631
  H      -1.019587     -1.633577      2.933736
  H       0.406700      0.644507      3.491048
  C      -0.194498      1.195435     -3.404193
  H      -0.322098      0.696491     -4.371790
  H       0.393712      2.103224     -3.568694
  H      -1.202394      1.494223     -3.087217
  H      -0.377992     -1.473961     -2.692735
21
Coordinates from ORCA-job reaction-5-ieip_optts_Compound_2_IRC_F E -1104.481522956164
  Sc      0.592369     -0.177318     -2.020740
  C       0.247782     -0.139319      0.325557
  N      -0.458105     -1.121338      0.919997
  C      -0.499114     -0.958622      2.276771
  C       0.203229      0.164787      2.548774
  N       0.645735      0.647357      1.346095
  C       1.470677      1.835774      1.241777
  H       1.071678      2.620132      1.881182
  H       1.464587      2.204508      0.219994
  H       2.494342      1.623011      1.545371
  C      -1.093489     -2.241222      0.246936
  H      -1.115342     -2.076820     -0.828403
  H      -2.119338     -2.345908      0.590177
  H      -0.549437     -3.161751      0.448055
  H      -1.019448     -1.633428      2.933484
  H       0.407109      0.644906      3.490038
  C      -0.193424      1.199807     -3.400431
  H      -0.319951      0.696092     -4.370092
  H       0.392736      2.107071     -3.569770
  H      -1.201734      1.496885     -3.087169
  H      -0.375768     -1.481013     -2.690048
21
Coordinates from ORCA-job reaction-5-ieip_optts_Compound_2_IRC_F E -1104.481788706802
  Sc      0.588513     -0.178512     -2.020690
  C       0.247333     -0.139821      0.324403
  N      -0.458549     -1.121867      0.919604
  C      -0.498369     -0.957574      2.275863
  C       0.202997      0.164190      2.546863
  N       0.645669      0.647339      1.344845
  C       1.470622      1.835692      1.240130
  H       1.071491      2.619893      1.879743
  H       1.464779      2.204633      0.218530
  H       2.494191      1.622869      1.544046
  C      -1.094165     -2.241959      0.247157
  H      -1.116299     -2.078674     -0.828211
  H      -2.119893     -2.346268      0.590995
  H      -0.550051     -3.162371      0.448705
  H      -1.019359     -1.633370      2.933229
  H       0.407782      0.645640      3.488754
  C      -0.191940      1.204673     -3.397592
  H      -0.316607      0.696558     -4.365538
  H       0.391525      2.112812     -3.571138
  H      -1.201312      1.500999     -3.086866
  H      -0.372442     -1.491055     -2.686250
21
Coordinates from ORCA-job reaction-5-ieip_optts_Compound_2_IRC_F E -1104.482073088013
  Sc      0.584052     -0.179840     -2.020563
  C       0.246742     -0.140447      0.323149
  N      -0.458878     -1.122237      0.918817
  C      -0.498311     -0.957522      2.275213
  C       0.203280      0.164496      2.545530
  N       0.645506      0.647131      1.342920
  C       1.470533      1.835582      1.238239
  H       1.071279      2.619621      1.877959
  H       1.464972      2.204738      0.216691
  H       2.494020      1.622692      1.542408
  C      -1.095016     -2.242895      0.247573
  H      -1.117442     -2.080896     -0.827998
  H      -2.120575     -2.346728      0.591999
  H      -0.550809     -3.163145      0.449524
  H      -1.018947     -1.632898      2.932641
  H       0.408459      0.646232      3.486743
  C      -0.190338      1.210354     -3.394435
  H      -0.312742      0.697285     -4.360102
  H       0.390192      2.119368     -3.572537
  H      -1.200818      1.505896     -3.086498
  H      -0.368301     -1.502687     -2.681870
21
Coordinates from ORCA-job reaction-5-ieip_optts_Compound_2_IRC_F E -1104.482338159850
  Sc      0.579670     -0.180984     -2.020439
  C       0.246095     -0.141102      0.321862
  N      -0.459384     -1.122806      0.918337
  C      -0.498045     -0.957248      2.274086
  C       0.203580      0.164721      2.543607
  N       0.645328      0.646988      1.341305
  C       1.470409      1.835400      1.236202
  H       1.071057      2.619345      1.876039
  H       1.465129      2.204772      0.214747
  H       2.493820      1.622489      1.540642
  C      -1.095885     -2.243838      0.248013
  H      -1.118625     -2.083226     -0.827697
  H      -2.121290     -2.347221      0.593085
  H      -0.551617     -3.163963      0.450446
  H      -1.018690     -1.632633      2.932311
  H       0.409232      0.647007      3.484990
  C      -0.188828      1.215928     -3.391055
  H      -0.309054      0.698132     -4.354944
  H       0.389049      2.125684     -3.573636
  H      -1.200396      1.510897     -3.086112
  H      -0.363791     -1.514018     -2.677622
21
Coordinates from ORCA-job reaction-5-ieip_optts_Compound_2_IRC_F E -1104.482587341403
  Sc      0.575355     -0.182020     -2.020220
  C       0.245380     -0.141805      0.320568
  N      -0.459757     -1.123213      0.917443
  C      -0.497921     -0.957072      2.273673
  C       0.203750      0.164864      2.542355
  N       0.645126      0.646751      1.339131
  C       1.470295      1.835273      1.234067
  H       1.070840      2.619069      1.873955
  H       1.465231      2.204713      0.212658
  H       2.493603      1.622256      1.538730
  C      -1.096854     -2.244932      0.248534
  H      -1.119845     -2.085652     -0.827348
  H      -2.122056     -2.347763      0.594254
  H      -0.552490     -3.164831      0.451477
  H      -1.018240     -1.632130      2.931807
  H       0.409981      0.647666      3.482876
  C      -0.187455      1.221395     -3.387897
  H      -0.305446      0.699277     -4.349618
  H       0.388043      2.131811     -3.574432
  H      -1.200015      1.516055     -3.085692
  H      -0.358884     -1.525215     -2.673458
21
Coordinates from ORCA-job reaction-5-ieip_optts_Compound_2_IRC_F E -1104.482821319996
  Sc      0.571130     -0.182905     -2.020036
  C       0.244591     -0.142545      0.319275
  N      -0.460365     -1.123867      0.917091
  C      -0.497823     -0.957090      2.272418
  C       0.204272      0.165418      2.540351
  N       0.644861      0.646555      1.337510
  C       1.470081      1.834964      1.231806
  H       1.070606      2.618807      1.871711
  H       1.465298      2.204608      0.210377
  H       2.493377      1.621998      1.536664
  C      -1.097811     -2.245954      0.249166
  H      -1.121124     -2.088214     -0.826960
  H      -2.122877     -2.348346      0.595516
  H      -0.553412     -3.165782      0.452628
  H      -1.017922     -1.631807      2.931568
  H       0.410819      0.648490      3.481000
  C      -0.186179      1.226886     -3.384379
  H      -0.302018      0.700514     -4.344641
  H       0.387216      2.137733     -3.574921
  H      -1.199652      1.521335     -3.085260
  H      -0.353565     -1.536210     -2.669402
21
Coordinates from ORCA-job reaction-5-ieip_optts_Compound_2_IRC_F E -1104.483039736111
  Sc      0.567065     -0.183680     -2.019733
  C       0.243756     -0.143322      0.317859
  N      -0.460815     -1.124313      0.916327
  C      -0.497639     -0.956822      2.272089
  C       0.204390      0.165472      2.539051
  N       0.644542      0.646223      1.335288
  C       1.469953      1.834819      1.229344
  H       1.070378      2.618543      1.869288
  H       1.465286      2.204351      0.208019
  H       2.493103      1.621702      1.534435
  C      -1.098896     -2.247211      0.249750
  H      -1.122428     -2.090864     -0.826432
  H      -2.123741     -2.348972      0.596865
  H      -0.554412     -3.166752      0.453905
  H      -1.017433     -1.631282      2.931188
  H       0.411648      0.649224      3.478807
  C      -0.185043      1.232113     -3.381206
  H      -0.298737      0.702114     -4.339506
  H       0.386580      2.143405     -3.575041
  H      -1.199375      1.526746     -3.084772
  H      -0.347841     -1.546932     -2.665500
21
Coordinates from ORCA-job reaction-5-ieip_optts_Compound_2_IRC_F E -1104.483246015108
  Sc      0.563115     -0.184334     -2.019486
  C       0.242766     -0.144194      0.316779
  N      -0.461531     -1.125109      0.915784
  C      -0.497501     -0.956767      2.270953
  C       0.204866      0.165959      2.537021
  N       0.644297      0.646097      1.333375
  C       1.469594      1.834355      1.226887
  H       1.070148      2.618296      1.866648
  H       1.465221      2.204054      0.205338
  H       2.492845      1.621376      1.532014
  C      -1.099959     -2.248320      0.250683
  H      -1.123796     -2.093648     -0.825951
  H      -2.124668     -2.349654      0.598305
  H      -0.555468     -3.167834      0.455323
  H      -1.017075     -1.630944      2.931094
  H       0.412578      0.650134      3.476849
  C      -0.184015      1.237452     -3.377584
  H      -0.295652      0.703807     -4.334773
  H       0.386131      2.148886     -3.574822
  H      -1.199079      1.532299     -3.084264
  H      -0.341643     -1.557512     -2.661701
21
Coordinates from ORCA-job reaction-5-ieip_optts_Compound_2_IRC_F E -1104.483437891128
  Sc      0.559420     -0.184887     -2.019101
  C       0.241822     -0.145045      0.315128
  N      -0.462111     -1.125645      0.915277
  C      -0.497313     -0.956495      2.270673
  C       0.204989      0.166022      2.535653
  N       0.643846      0.645683      1.331233
  C       1.469430      1.834153      1.224097
  H       1.069913      2.618049      1.863827
  H       1.465061      2.203571      0.202629
  H       2.492503      1.621012      1.529414
  C      -1.101167     -2.249732      0.251389
  H      -1.125181     -2.096524     -0.825257
  H      -2.125638     -2.350366      0.599839
  H      -0.556607     -3.168916      0.456884
  H      -1.016530     -1.630386      2.930863
  H       0.413488      0.650940      3.474582
  C      -0.183137      1.242416     -3.374416
  H      -0.292779      0.705920     -4.329904
  H       0.385913      2.154045     -3.574172
  H      -1.198882      1.537939     -3.083674
  H      -0.335050     -1.567683     -2.658129
21
Coordinates from ORCA-job reaction-5-ieip_optts_Compound_2_IRC_F E -1104.483619497018
  Sc      0.555910     -0.185325     -2.018805
  C       0.240638     -0.146047      0.314228
  N      -0.462855     -1.126423      0.914715
  C      -0.497173     -0.956420      2.269686
  C       0.205438      0.166492      2.533678
  N       0.643477      0.645432      1.329078
  C       1.469010      1.833640      1.221200
  H       1.069670      2.617858      1.860785
  H       1.464820      2.202983      0.199657
  H       2.492196      1.620610      1.526607
  C      -1.102328     -2.250982      0.252373
  H      -1.126621     -2.099533     -0.824511
  H      -2.126718     -2.351145      0.601481
  H      -0.557808     -3.170124      0.458613
  H      -1.016110     -1.630009      2.930939
  H       0.414496      0.651911      3.472536
  C      -0.182365      1.247448     -3.370757
  H      -0.290153      0.708135     -4.325526
  H       0.385927      2.159001     -3.573139
  H      -1.198674      1.543708     -3.083037
  H      -0.327961     -1.577660     -2.654707
21
Coordinates from ORCA-job reaction-5-ieip_optts_Compound_2_IRC_F E -1104.483788524853
  Sc      0.552721     -0.185707     -2.018332
  C       0.239587     -0.146980      0.312321
  N      -0.463546     -1.127026      0.914441
  C      -0.496928     -0.956037      2.269580
  C       0.205472      0.166438      2.532319
  N       0.642881      0.644916      1.326967
  C       1.468800      1.833392      1.218187
  H       1.069447      2.617614      1.857494
  H       1.464469      2.202248      0.196495
  H       2.491770      1.620176      1.523587
  C      -1.103704     -2.252595      0.253329
  H      -1.128070     -2.102597     -0.823708
  H      -2.127760     -2.351933      0.603173
  H      -0.559100     -3.171304      0.460476
  H      -1.015497     -1.629408      2.930879
  H       0.415484      0.652782      3.470200
  C      -0.181758      1.252096     -3.367693
  H      -0.287762      0.710827     -4.320957
  H       0.386163      2.163580     -3.571642
  H      -1.198523      1.549520     -3.082293
  H      -0.320504     -1.587186     -2.651553
21
Coordinates from ORCA-job reaction-5-ieip_optts_Compound_2_IRC_F E -1104.483942448283
  Sc      0.549895     -0.185950     -2.018103
  C       0.238186     -0.148121      0.312018
  N      -0.464504     -1.128103      0.913885
  C      -0.496865     -0.956139      2.268263
  C       0.206133      0.167203      2.530030
  N       0.642600      0.644872      1.324880
  C       1.468121      1.832548      1.215015
  H       1.069188      2.617544      1.854179
  H       1.464037      2.201401      0.193264
  H       2.491487      1.619714      1.520498
  C      -1.104778     -2.253660      0.254505
  H      -1.129511     -2.105683     -0.822783
  H      -2.129001     -2.352779      0.604942
  H      -0.560370     -3.172647      0.462464
  H      -1.015140     -1.629151      2.931300
  H       0.416560      0.653870      3.468386
  C      -0.181266      1.256714     -3.363846
  H      -0.285793      0.713364     -4.317445
  H       0.386667      2.167781     -3.569818
  H      -1.198331      1.555183     -3.081518
  H      -0.312857     -1.596086     -2.648715
21
Coordinates from ORCA-job reaction-5-ieip_optts_Compound_2_IRC_F E -1104.484074925993
  Sc      0.547577     -0.186209     -2.017480
  C       0.237317     -0.148949      0.309238
  N      -0.465062     -1.128416      0.914009
  C      -0.496400     -0.955256      2.269167
  C       0.205598      0.166410      2.529414
  N       0.641730      0.644017      1.322956
  C       1.468157      1.832654      1.212077
  H       1.069024      2.617252      1.850712
  H       1.463504      2.200447      0.190022
  H       2.490925      1.619267      1.517348
  C      -1.106350     -2.255646      0.255433
  H      -1.130839     -2.108570     -0.821935
  H      -2.129910     -2.353520      0.606565
  H      -0.561715     -3.173697      0.464410
  H      -1.014385     -1.628394      2.931216
  H       0.417471      0.654606      3.465982
  C      -0.180937      1.260384     -3.361700
  H      -0.284078      0.716531     -4.313257
  H       0.387296      2.171349     -3.567650
  H      -1.198268      1.560540     -3.080611
  H      -0.305414     -1.604022     -2.646332
21
Coordinates from ORCA-job reaction-5-ieip_optts_Compound_2_IRC_F E -1104.484108145858
  Sc      0.547165     -0.186221     -2.017509
  C       0.236933     -0.149238      0.309710
  N      -0.465304     -1.128735      0.913796
  C      -0.496560     -0.955600      2.268550
  C       0.206015      0.166974      2.528773
  N       0.641757      0.644125      1.322525
  C       1.467866      1.832282      1.211419
  H       1.068960      2.617308      1.850066
  H       1.463389      2.200247      0.189362
  H       2.490926      1.619169      1.516726
  C      -1.106453     -2.255660      0.255743
  H      -1.131112     -2.109169     -0.821725
  H      -2.130226     -2.353703      0.606931
  H      -0.561950     -3.174021      0.464838
  H      -1.014365     -1.628409      2.931424
  H       0.417690      0.654851      3.465751
  C      -0.180897      1.261271     -3.360741
  H      -0.283839      0.716987     -4.312906
  H       0.387479      2.172020     -3.567180
  H      -1.198193      1.561570     -3.080441
  H      -0.303880     -1.605527     -2.645899
21
Coordinates from ORCA-job reaction-5-ieip_optts_Compound_2_IRC_F E -1104.484175285713
  Sc      0.546158     -0.186275     -2.017403
  C       0.236207     -0.149829      0.309662
  N      -0.465755     -1.129227      0.913533
  C      -0.496756     -0.955976      2.268029
  C       0.206495      0.167642      2.527901
  N       0.641572      0.644050      1.321463
  C       1.467509      1.831849      1.209828
  H       1.068846      2.617298      1.848319
  H       1.463073      2.199702      0.187688
  H       2.490759      1.618929      1.515096
  C      -1.107000     -2.256209      0.256387
  H      -1.131781     -2.110652     -0.821205
  H      -2.130845     -2.354121      0.607804
  H      -0.562608     -3.174683      0.465898
  H      -1.014119     -1.628202      2.931672
  H       0.418184      0.655323      3.464828
  C      -0.180765      1.263212     -3.358957
  H      -0.283201      0.718407     -4.311533
  H       0.387946      2.173690     -3.565941
  H      -1.198112      1.564207     -3.079956
  H      -0.300008     -1.609281     -2.644843
