21
Coordinates from ORCA-job reaction-5-ieip_optts_Compound_1 E -1104.415308248543
  Sc      1.197500     -0.404700     -1.975290
  C       0.364480     -0.555480      0.215390
  N      -0.461250     -1.340170      0.925840
  C      -0.784390     -0.763450      2.126280
  C      -0.135940      0.420280      2.172570
  N       0.562110      0.522740      1.000230
  C       1.409220      1.644350      0.641080
  H       1.484670      2.330780      1.479990
  H       0.993940      2.195740     -0.201860
  H       2.414680      1.301150      0.403090
  C      -0.955310     -2.644410      0.525150
  H      -0.562600     -2.903970     -0.453590
  H      -2.041600     -2.638160      0.474020
  H      -0.638080     -3.400750      1.240740
  H      -1.441350     -1.227430      2.841900
  H      -0.122370      1.182570      2.932400
  C      -0.161370      1.289240     -2.797240
  H      -0.869700      1.469430     -3.604980
  H       0.581440      2.106950     -2.896810
  H      -0.739400      1.457880     -1.876480
  H      -0.090020     -0.039720     -3.170400
21
Coordinates from ORCA-job reaction-5-ieip_optts_Compound_1 E -1104.419717202919
  Sc      1.108986     -0.380742     -1.991227
  C       0.363958     -0.505461      0.241461
  N      -0.450883     -1.315383      0.936553
  C      -0.753157     -0.785784      2.162828
  C      -0.103158      0.395652      2.241629
  N       0.573697      0.543937      1.061583
  C       1.411849      1.684769      0.739549
  H       1.491109      2.333238      1.607784
  H       0.984948      2.268733     -0.074980
  H       2.415789      1.360736      0.475034
  C      -0.958633     -2.597177      0.485158
  H      -0.586776     -2.810522     -0.512795
  H      -2.045800     -2.582472      0.453492
  H      -0.632733     -3.388464      1.157262
  H      -1.397947     -1.276381      2.871764
  H      -0.075191      1.127536      3.030451
  C      -0.174448      1.222932     -2.912108
  H      -0.875917      1.425835     -3.719661
  H       0.631487      1.979181     -3.044684
  H      -0.731522      1.457104     -1.989466
  H      -0.191001     -0.154399     -3.217596
21
Coordinates from ORCA-job reaction-5-ieip_optts_Compound_1 E -1104.423769554274
  Sc      1.003612     -0.341345     -1.994193
  C       0.350658     -0.461142      0.267883
  N      -0.444606     -1.298768      0.953999
  C      -0.717468     -0.815778      2.205387
  C      -0.068803      0.364538      2.310269
  N       0.576974      0.559485      1.119850
  C       1.401392      1.718836      0.824546
  H       1.490961      2.332205      1.716706
  H       0.954686      2.329069      0.040739
  H       2.402044      1.415309      0.528323
  C      -0.963256     -2.561940      0.463961
  H      -0.620976     -2.732526     -0.552903
  H      -2.051003     -2.547630      0.462938
  H      -0.617947     -3.380395      1.092125
  H      -1.341955     -1.334389      2.912654
  H      -0.021928      1.065498      3.125896
  C      -0.171883      1.178152     -3.038880
  H      -0.849030      1.404500     -3.859931
  H       0.702881      1.858752     -3.189569
  H      -0.718109      1.487886     -2.128203
  H      -0.291583     -0.237446     -3.259571
21
Coordinates from ORCA-job reaction-5-ieip_optts_Compound_1 E -1104.427208909194
  Sc      0.896139     -0.297829     -1.987961
  C       0.339800     -0.409944      0.292090
  N      -0.437436     -1.276704      0.963824
  C      -0.683087     -0.843246      2.238637
  C      -0.035070      0.334428      2.373459
  N       0.582191      0.578324      1.176708
  C       1.393686      1.752774      0.906740
  H       1.495018      2.334805      1.818273
  H       0.928187      2.384911      0.151984
  H       2.390770      1.467606      0.581901
  C      -0.966003     -2.518591      0.432434
  H      -0.652751     -2.643774     -0.600864
  H      -2.053495     -2.508125      0.460072
  H      -0.601764     -3.363785      1.012493
  H      -1.289357     -1.391156      2.939653
  H       0.029552      1.002453      3.215081
  C      -0.173857      1.123452     -3.146889
  H      -0.820429      1.357541     -3.988929
  H       0.763049      1.722991     -3.311010
  H      -0.706015      1.519235     -2.257613
  H      -0.394469     -0.322498     -3.268054
21
Coordinates from ORCA-job reaction-5-ieip_optts_Compound_1 E -1104.429557198719
  Sc      0.813728     -0.247028     -1.973443
  C       0.329111     -0.350972      0.314155
  N      -0.430792     -1.248287      0.966323
  C      -0.645377     -0.871178      2.264604
  C       0.003803      0.301448      2.433687
  N       0.590233      0.599174      1.233302
  C       1.387599      1.788278      0.989456
  H       1.499974      2.340895      1.917792
  H       0.902599      2.439258      0.263627
  H       2.381146      1.522759      0.637516
  C      -0.975310     -2.462878      0.390188
  H      -0.703840     -2.533333     -0.660707
  H      -2.061128     -2.458169      0.457470
  H      -0.587834     -3.336838      0.909251
  H      -1.232695     -1.451002      2.955967
  H       0.089183      0.931893      3.301979
  C      -0.181942      1.056995     -3.241983
  H      -0.791981      1.271218     -4.114666
  H       0.801928      1.588449     -3.405471
  H      -0.709610      1.536354     -2.389034
  H      -0.474137     -0.414167     -3.247984
21
Coordinates from ORCA-job reaction-5-ieip_optts_Compound_1 E -1104.430805048310
  Sc      0.776237     -0.195471     -1.956850
  C       0.303466     -0.311644      0.330239
  N      -0.434031     -1.233472      0.974880
  C      -0.606565     -0.902535      2.292202
  C       0.043936      0.266164      2.480729
  N       0.590153      0.607187      1.272824
  C       1.367367      1.811118      1.039839
  H       1.482672      2.351327      1.975036
  H       0.862148      2.465985      0.331493
  H       2.360480      1.566571      0.670704
  C      -0.997439     -2.428958      0.376561
  H      -0.809007     -2.438976     -0.695036
  H      -2.075054     -2.449885      0.524370
  H      -0.557845     -3.320527      0.818717
  H      -1.168768     -1.508766      2.981766
  H       0.155848      0.866827      3.366901
  C      -0.172393      1.026995     -3.327923
  H      -0.735719      1.199832     -4.239376
  H       0.843287      1.508465     -3.471930
  H      -0.712451      1.576112     -2.526591
  H      -0.511662     -0.453481     -3.216526
21
Coordinates from ORCA-job reaction-5-ieip_optts_Compound_1 E -1104.431599543609
  Sc      0.763509     -0.168236     -1.944606
  C       0.286422     -0.269978      0.340683
  N      -0.440804     -1.209559      0.970825
  C      -0.586141     -0.918595      2.300845
  C       0.070068      0.243267      2.511325
  N       0.593114      0.619999      1.303467
  C       1.364218      1.831069      1.088624
  H       1.465697      2.364405      2.029345
  H       0.860307      2.487717      0.381312
  H       2.362299      1.597762      0.725649
  C      -1.010990     -2.387878      0.344800
  H      -0.916193     -2.319360     -0.737422
  H      -2.071145     -2.457751      0.578126
  H      -0.507961     -3.288459      0.690910
  H      -1.135887     -1.544425      2.982849
  H       0.198973      0.817871      3.412357
  C      -0.175091      0.978081     -3.369159
  H      -0.714921      1.105555     -4.302421
  H       0.853063      1.434055     -3.524020
  H      -0.717816      1.580993     -2.611773
  H      -0.536061     -0.493666     -3.169686
21
Coordinates from ORCA-job reaction-5-ieip_optts_Compound_1 E -1104.432134961909
  Sc      0.760642     -0.133486     -1.930354
  C       0.287523     -0.235587      0.354236
  N      -0.442580     -1.185671      0.964976
  C      -0.578465     -0.926325      2.302398
  C       0.086435      0.226074      2.537418
  N       0.604828      0.629268      1.335881
  C       1.379767      1.841662      1.144682
  H       1.440636      2.381725      2.085126
  H       0.899687      2.492455      0.415609
  H       2.392276      1.611596      0.821886
  C      -1.015921     -2.347304      0.310841
  H      -0.991471     -2.214892     -0.770084
  H      -2.056918     -2.462563      0.604011
  H      -0.468326     -3.249712      0.575867
  H      -1.128448     -1.565169      2.971985
  H       0.222768      0.778225      3.451318
  C      -0.196502      0.932407     -3.413525
  H      -0.718210      0.995131     -4.363255
  H       0.831283      1.388437     -3.581544
  H      -0.750888      1.576701     -2.701565
  H      -0.553458     -0.530101     -3.113876
21
Coordinates from ORCA-job reaction-5-ieip_optts_Compound_1 E -1104.432492300698
  Sc      0.737322     -0.082826     -1.925891
  C       0.264805     -0.202942      0.362784
  N      -0.450934     -1.168746      0.967503
  C      -0.557326     -0.942312      2.313242
  C       0.111110      0.204848      2.561839
  N       0.602025      0.638252      1.359371
  C       1.384115      1.848770      1.187876
  H       1.391708      2.406791      2.119850
  H       0.941043      2.485367      0.423969
  H       2.413410      1.617842      0.923299
  C      -1.032005     -2.319946      0.301420
  H      -1.079610     -2.142082     -0.772753
  H      -2.047698     -2.479184      0.656055
  H      -0.443855     -3.215295      0.494047
  H      -1.092516     -1.598076      2.978397
  H       0.266899      0.734904      3.485638
  C      -0.200946      0.903856     -3.464860
  H      -0.689496      0.917455     -4.434220
  H       0.827102      1.365755     -3.622959
  H      -0.785252      1.573468     -2.802943
  H      -0.555239     -0.543028     -3.109634
21
Coordinates from ORCA-job reaction-5-ieip_optts_Compound_1 E -1104.432685140662
  Sc      0.728004     -0.044073     -1.917468
  C       0.259888     -0.189149      0.370891
  N      -0.451676     -1.161745      0.969701
  C      -0.547832     -0.950374      2.318746
  C       0.124586      0.192750      2.575806
  N       0.605881      0.639941      1.374520
  C       1.398579      1.844286      1.212064
  H       1.323978      2.449320      2.111259
  H       1.018915      2.440003      0.383749
  H       2.447098      1.607298      1.045932
  C      -1.037139     -2.305305      0.294373
  H      -1.085578     -2.116135     -0.777605
  H      -2.050738     -2.468855      0.652672
  H      -0.447600     -3.202237      0.474601
  H      -1.079906     -1.612388      2.980198
  H       0.288223      0.711898      3.504457
  C      -0.220535      0.898106     -3.492251
  H      -0.681611      0.864316     -4.474401
  H       0.798979      1.382148     -3.640350
  H      -0.838846      1.571810     -2.867915
  H      -0.548008     -0.548745     -3.096948
21
Coordinates from ORCA-job reaction-5-ieip_optts_Compound_1 E -1104.432882331414
  Sc      0.721204     -0.014627     -1.917393
  C       0.252276     -0.176501      0.370761
  N      -0.451356     -1.156420      0.967446
  C      -0.535379     -0.957409      2.319172
  C       0.136554      0.184885      2.580633
  N       0.605753      0.643934      1.379121
  C       1.408995      1.841877      1.225891
  H       1.253215      2.494234      2.080687
  H       1.103661      2.388946      0.336010
  H       2.468577      1.602088      1.164645
  C      -1.043663     -2.294429      0.288415
  H      -1.088420     -2.103260     -0.783206
  H      -2.058850     -2.452157      0.645050
  H      -0.460035     -3.195387      0.467494
  H      -1.061902     -1.625363      2.979113
  H       0.307534      0.696584      3.512126
  C      -0.235159      0.892295     -3.497351
  H      -0.677210      0.836052     -4.487542
  H       0.773895      1.401876     -3.634028
  H      -0.883120      1.555152     -2.893647
  H      -0.531911     -0.559502     -3.101365
21
Coordinates from ORCA-job reaction-5-ieip_optts_Compound_1 E -1104.433059333702
  Sc      0.734657      0.007318     -1.914531
  C       0.257846     -0.172213      0.370635
  N      -0.448996     -1.152355      0.963064
  C      -0.532858     -0.957644      2.315585
  C       0.142387      0.181643      2.581872
  N       0.613705      0.643033      1.382059
  C       1.425706      1.834922      1.236055
  H       1.188492      2.537514      2.030493
  H       1.204768      2.322836      0.288773
  H       2.486984      1.598604      1.288077
  C      -1.046435     -2.285215      0.280037
  H      -1.080522     -2.093921     -0.791722
  H      -2.065504     -2.434086      0.629404
  H      -0.471603     -3.190994      0.463137
  H      -1.062741     -1.625697      2.972775
  H       0.313901      0.690208      3.515075
  C      -0.257990      0.890226     -3.496810
  H      -0.680069      0.810305     -4.493866
  H       0.729918      1.443985     -3.618560
  H      -0.941485      1.526122     -2.905165
  H      -0.505502     -0.571721     -3.094354
21
Coordinates from ORCA-job reaction-5-ieip_optts_Compound_1 E -1104.433230825767
  Sc      0.729852      0.033337     -1.915801
  C       0.259141     -0.158902      0.369747
  N      -0.446820     -1.143348      0.956524
  C      -0.523606     -0.960784      2.311118
  C       0.154680      0.174801      2.584864
  N       0.621527      0.646098      1.387035
  C       1.440188      1.834469      1.254079
  H       1.132103      2.575465      1.987295
  H       1.302881      2.270559      0.266666
  H       2.493529      1.607398      1.408583
  C      -1.051480     -2.268207      0.266382
  H      -1.071553     -2.076016     -0.805523
  H      -2.075592     -2.405497      0.605780
  H      -0.488852     -3.180648      0.454006
  H      -1.051523     -1.633941      2.964728
  H       0.331243      0.674677      3.521883
  C      -0.277770      0.873679     -3.498688
  H      -0.672826      0.781091     -4.505816
  H       0.691365      1.468146     -3.593925
  H      -0.999115      1.481229     -2.923306
  H      -0.492712     -0.590735     -3.093604
21
Coordinates from ORCA-job reaction-5-ieip_optts_Compound_1 E -1104.433334597955
  Sc      0.751182      0.047432     -1.915536
  C       0.264850     -0.152574      0.366605
  N      -0.446045     -1.136375      0.948803
  C      -0.520727     -0.960155      2.304424
  C       0.163220      0.170539      2.583601
  N       0.631609      0.645598      1.387710
  C       1.454704      1.831690      1.264128
  H       1.082512      2.609849      1.926142
  H       1.403688      2.212157      0.245920
  H       2.491448      1.618847      1.519250
  C      -1.057390     -2.255666      0.255436
  H      -1.073448     -2.061561     -0.816035
  H      -2.083091     -2.386249      0.592822
  H      -0.501433     -3.172350      0.442326
  H      -1.050683     -1.634733      2.954994
  H       0.342934      0.664487      3.523218
  C      -0.299362      0.863768     -3.492911
  H      -0.663824      0.759106     -4.510310
  H       0.641461      1.508546     -3.561853
  H      -1.060272      1.432342     -2.931112
  H      -0.466673     -0.601828     -3.085593
21
Coordinates from ORCA-job reaction-5-ieip_optts_Compound_1 E -1104.433367265191
  Sc      0.735858      0.069722     -1.915303
  C       0.265733     -0.136561      0.368347
  N      -0.446962     -1.123518      0.943498
  C      -0.507799     -0.965309      2.301897
  C       0.186476      0.156762      2.590215
  N       0.646709      0.645707      1.396584
  C       1.462722      1.838313      1.286425
  H       1.042930      2.635281      1.896057
  H       1.478046      2.181514      0.253775
  H       2.483557      1.643550      1.609815
  C      -1.068884     -2.231581      0.240975
  H      -1.085363     -2.027232     -0.828615
  H      -2.094370     -2.358172      0.580622
  H      -0.518979     -3.154025      0.417062
  H      -1.033725     -1.646955      2.948425
  H       0.378438      0.636086      3.534983
  C      -0.312458      0.836423     -3.501937
  H      -0.621290      0.725735     -4.537200
  H       0.602162      1.528322     -3.520489
  H      -1.123140      1.367573     -2.975383
  H      -0.465002     -0.618764     -3.087723
21
Coordinates from ORCA-job reaction-5-ieip_optts_Compound_1 E -1104.433356313579
  Sc      0.758856      0.076335     -1.913924
  C       0.260400     -0.136204      0.365596
  N      -0.449510     -1.123452      0.944190
  C      -0.493757     -0.972625      2.304211
  C       0.207446      0.145180      2.590595
  N       0.656331      0.638214      1.394493
  C       1.459914      1.838892      1.282556
  H       0.999686      2.652174      1.839334
  H       1.525932      2.143142      0.239693
  H       2.465235      1.670207      1.664406
  C      -1.087881     -2.224694      0.245974
  H      -1.115958     -2.016932     -0.822472
  H      -2.109956     -2.344303      0.598346
  H      -0.542906     -3.151867      0.412138
  H      -1.013736     -1.656611      2.953039
  H       0.412690      0.618521      3.535597
  C      -0.318209      0.835491     -3.501753
  H      -0.563089      0.725897     -4.554284
  H       0.564811      1.572469     -3.467864
  H      -1.174476      1.326319     -3.014010
  H      -0.437162     -0.613285     -3.093833
21
Coordinates from ORCA-job reaction-5-ieip_optts_Compound_1 E -1104.433326634190
  Sc      0.732516      0.086712     -1.914513
  C       0.269064     -0.136497      0.368670
  N      -0.446133     -1.121013      0.944282
  C      -0.488256     -0.972943      2.304679
  C       0.221261      0.139764      2.593097
  N       0.671920      0.633380      1.397766
  C       1.471618      1.837250      1.288093
  H       0.967378      2.669822      1.773919
  H       1.608644      2.095913      0.239744
  H       2.449269      1.695581      1.743834
  C      -1.090977     -2.215282      0.240965
  H      -1.095080     -2.013614     -0.828769
  H      -2.120937     -2.316498      0.575773
  H      -0.564021     -3.150280      0.420450
  H      -1.010586     -1.655740      2.952892
  H       0.431243      0.609085      3.539074
  C      -0.331786      0.826798     -3.499292
  H      -0.515009      0.727820     -4.565922
  H       0.515083      1.608042     -3.403051
  H      -1.233202      1.272620     -3.052266
  H      -0.437350     -0.618048     -3.117398
21
Coordinates from ORCA-job reaction-5-ieip_optts_Compound_1 E -1104.433377916032
  Sc      0.744295      0.077914     -1.915640
  C       0.265096     -0.143098      0.367105
  N      -0.447663     -1.126695      0.947822
  C      -0.489627     -0.973404      2.307713
  C       0.216722      0.142113      2.591249
  N       0.665954      0.631439      1.393730
  C       1.463354      1.835908      1.277381
  H       0.974829      2.662102      1.789413
  H       1.571530      2.107738      0.229193
  H       2.453311      1.687095      1.704367
  C      -1.090820     -2.226110      0.251305
  H      -1.098458     -2.030156     -0.819599
  H      -2.120079     -2.327779      0.588177
  H      -0.561521     -3.158887      0.435533
  H      -1.010219     -1.654886      2.958686
  H       0.425688      0.616020      3.535162
  C      -0.325561      0.841796     -3.499731
  H      -0.520233      0.740179     -4.563815
  H       0.536782      1.604912     -3.414054
  H      -1.213849      1.305438     -3.045645
  H      -0.434873     -0.608767     -3.116321
21
Coordinates from ORCA-job reaction-5-ieip_optts_Compound_1 E -1104.433352879427
  Sc      0.727705      0.060484     -1.914542
  C       0.261097     -0.135465      0.369807
  N      -0.446770     -1.124242      0.946867
  C      -0.494342     -0.972008      2.306493
  C       0.204047      0.148218      2.592805
  N       0.653683      0.641853      1.397046
  C       1.458114      1.842229      1.283223
  H       1.024127      2.641228      1.879862
  H       1.482579      2.173084      0.246700
  H       2.477466      1.660667      1.618193
  C      -1.080785     -2.224242      0.242870
  H      -1.100884     -2.014694     -0.825518
  H      -2.105838     -2.343613      0.586510
  H      -0.537989     -3.152187      0.411768
  H      -1.014584     -1.655797      2.955329
  H       0.406724      0.622767      3.537738
  C      -0.310218      0.833844     -3.499425
  H      -0.548373      0.719358     -4.553457
  H       0.583391      1.559458     -3.459115
  H      -1.165739      1.338479     -3.023698
  H      -0.468750     -0.616553     -3.097425
21
Coordinates from ORCA-job reaction-5-ieip_optts_Compound_1 E -1104.433380038365
  Sc      0.744914      0.057387     -1.916478
  C       0.269125     -0.146841      0.368396
  N      -0.447575     -1.129061      0.946559
  C      -0.519194     -0.958429      2.303025
  C       0.173379      0.165979      2.586773
  N       0.642071      0.645047      1.392342
  C       1.464965      1.832891      1.277595
  H       1.080946      2.615058      1.928152
  H       1.433663      2.206780      0.255772
  H       2.497700      1.621267      1.547730
  C      -1.062620     -2.245452      0.251155
  H      -1.095209     -2.042005     -0.818191
  H      -2.082502     -2.384665      0.602481
  H      -0.499413     -3.160981      0.421379
  H      -1.050989     -1.633721      2.951412
  H       0.358331      0.653325      3.528812
  C      -0.309473      0.850500     -3.501619
  H      -0.597990      0.731782     -4.541938
  H       0.606834      1.543388     -3.503387
  H      -1.127972      1.385365     -2.994419
  H      -0.474331     -0.604744     -3.083521
21
Coordinates from ORCA-job reaction-5-ieip_optts_Compound_1 E -1104.433388847725
  Sc      0.742652      0.065809     -1.916584
  C       0.266519     -0.146243      0.368300
  N      -0.447136     -1.129528      0.948600
  C      -0.503441     -0.966563      2.306824
  C       0.195621      0.153928      2.589563
  N       0.653368      0.638046      1.392947
  C       1.464028      1.834036      1.277082
  H       1.027124      2.639878      1.862415
  H       1.498177      2.157647      0.238408
  H       2.479286      1.651696      1.623938
  C      -1.077000     -2.238444      0.254576
  H      -1.095549     -2.041869     -0.816263
  H      -2.102573     -2.356305      0.597303
  H      -0.532487     -3.163163      0.435346
  H      -1.029060     -1.644790      2.957193
  H       0.392935      0.634983      3.532346
  C      -0.316828      0.850910     -3.504564
  H      -0.550022      0.737322     -4.559347
  H       0.572606      1.581249     -3.455003
  H      -1.175490      1.349272     -3.029806
  H      -0.458069     -0.604998     -3.101245
21
Coordinates from ORCA-job reaction-5-ieip_optts_Compound_1 E -1104.433423965363
  Sc      0.747677      0.074732     -1.914506
  C       0.266679     -0.142402      0.367589
  N      -0.447627     -1.125355      0.947213
  C      -0.502125     -0.964868      2.305746
  C       0.198247      0.154534      2.589372
  N       0.655529      0.639568      1.393172
  C       1.470339      1.832535      1.276240
  H       1.053482      2.630893      1.885833
  H       1.480948      2.173049      0.242485
  H       2.492718      1.638654      1.595252
  C      -1.081942     -2.229529      0.250040
  H      -1.086405     -2.035451     -0.821300
  H      -2.112037     -2.336335      0.582673
  H      -0.548255     -3.158975      0.438454
  H      -1.028108     -1.643261      2.955607
  H       0.397307      0.634006      3.532588
  C      -0.324010      0.837849     -3.495593
  H      -0.493083      0.729346     -4.563605
  H       0.528453      1.612526     -3.391836
  H      -1.226245      1.293141     -3.063439
  H      -0.436882     -0.611789     -3.109955
21
Coordinates from ORCA-job reaction-5-ieip_optts_Compound_1 E -1104.433423382610
  Sc      0.746928      0.074289     -1.913461
  C       0.264865     -0.143272      0.368072
  N      -0.449054     -1.125764      0.948793
  C      -0.503808     -0.963642      2.307116
  C       0.196044      0.156473      2.589416
  N       0.653186      0.640251      1.392662
  C       1.470601      1.831284      1.273409
  H       1.069917      2.623097      1.902038
  H       1.460002      2.185452      0.244226
  H       2.498683      1.629727      1.568443
  C      -1.082091     -2.231287      0.252673
  H      -1.089860     -2.036723     -0.818554
  H      -2.111001     -2.341177      0.587922
  H      -0.545363     -3.159368      0.439258
  H      -1.029914     -1.641240      2.957713
  H       0.394538      0.637276      3.532071
  C      -0.321632      0.839035     -3.496012
  H      -0.477941      0.731750     -4.566162
  H       0.525271      1.619261     -3.379911
  H      -1.231094      1.288478     -3.073452
  H      -0.433618     -0.611030     -3.114230
21
Coordinates from ORCA-job reaction-5-ieip_optts_Compound_1 E -1104.433425365658
  Sc      0.748142      0.073412     -1.913476
  C       0.265631     -0.144259      0.367824
  N      -0.448991     -1.126227      0.948531
  C      -0.505831     -0.962606      2.306591
  C       0.193490      0.157894      2.588727
  N       0.652376      0.640405      1.392117
  C       1.470628      1.830825      1.272362
  H       1.073212      2.621550      1.904423
  H       1.456384      2.187420      0.244073
  H       2.499609      1.627564      1.563067
  C      -1.080359     -2.232801      0.252567
  H      -1.087577     -2.038718     -0.818761
  H      -2.109390     -2.343629      0.587113
  H      -0.542750     -3.160195      0.440026
  H      -1.032881     -1.639521      2.957135
  H       0.390425      0.639767      3.531163
  C      -0.321167      0.840119     -3.494615
  H      -0.485475      0.732495     -4.563498
  H       0.529730      1.616275     -3.384913
  H      -1.226003      1.293555     -3.066047
  H      -0.434540     -0.610454     -3.112380
