! EnGrad PBEh-3c
%output 
xyzfile=True 
end 
%scf 
maxiter 250 
end
%output
Print[P_Hirshfeld] = 1
end
% maxcore
4000
*xyz 0 1
Pd   0.52844148   0.34516904  -0.20318560 
O    2.02017801   1.26261608   0.67003080 
C    1.57606862   2.59089733   0.28657387 
O    0.69153489   2.90196972  -0.21738437 
C    2.75014372   3.68581747   0.61863724 
H    2.25175763   4.56933575   1.05189164 
H    3.17608354   4.02984321  -0.33305235 
H    3.56842587   3.38711527   1.27033711 
N   -1.42290913  -0.75961167  -1.13568992 
C   -1.18752118  -1.83157454  -2.05396947 
H   -0.72305717  -1.40831020  -2.92137121 
H   -2.17051435  -2.19933112  -2.28465103 
H   -0.55710349  -2.58971304  -1.61045547 
C   -2.13606310   0.40295164  -1.67929992 
H   -2.24091132   1.20660232  -0.97606554 
H   -3.08540431  -0.00798995  -1.97364372 
H   -1.55590259   0.68289510  -2.54281647 
C   -1.69536449  -0.99615120   1.45453177 
C   -1.27251972  -2.14015751   2.30775899 
C   -0.98150206  -1.95725767   3.63595973 
C   -1.18456564  -0.71303006   4.18201662 
C   -1.54271183   0.44728829   3.42568354 
C   -1.73143556   0.17248894   2.16583236 
H   -0.92311151  -0.56243002   5.23872478 
H   -1.69952641   1.32536446   3.89902305 
H   -1.26991076  -3.12839588   1.88146882 
H   -0.88441197  -2.82941382   4.25464554 
H   -2.25862671   3.20720258   1.44277291 
C   -2.19258514  -1.32065312   0.13997818 
H   -3.19189219  -0.86847656   0.10293736 
H   -2.34942345  -2.37326287  -0.01441242 
O    2.11626513  -0.31102468  -1.37033265 
C    2.15857257  -0.52138648  -2.69882744 
O    1.36132345  -0.49018936  -3.65176778 
C    3.77776922  -0.72776890  -2.98365318 
H    3.86824598  -1.81505066  -3.28396816 
H    4.39751445  -0.50621328  -2.19818476 
H    4.01739895  -0.16295841  -3.89843834 
*
