! EnGrad PBEh-3c
%output 
xyzfile=True 
end 
%scf 
maxiter 250 
end
%output
Print[P_Hirshfeld] = 1
end
% maxcore
4000
*xyz 0 1
Pd   0.64483178   0.44472438  -0.06569450 
O    1.90776557   1.17675967   0.57534581 
C    1.39907391   2.60975207   0.19029831 
O    0.74374839   2.96717963  -0.17962111 
C    2.72228647   3.61453831   0.62697850 
H    2.24527782   4.51006508   1.04375343 
H    3.16271147   3.98463633  -0.31329453 
H    3.57196601   3.37041601   1.27038139 
N   -1.44112464  -0.73421703  -1.12902374 
C   -1.17953780  -1.85324434  -2.08903730 
H   -0.59559532  -1.34241027  -2.89128774 
H   -2.18682832  -2.30377343  -2.20275108 
H   -0.59836739  -2.66782214  -1.61466348 
C   -2.15931308   0.43084417  -1.72148829 
H   -2.24202480   1.22999061  -0.93677256 
H   -3.12364076  -0.02000341  -1.99564432 
H   -1.50074844   0.67830774  -2.57291176 
C   -1.81305680  -1.04027028   1.53838882 
C   -1.45475553  -2.14960054   2.33024958 
C   -0.96811086  -1.94508053   3.63397916 
C   -1.23708521  -0.68945047   4.23370446 
C   -1.42184055   0.49137959   3.51632837 
C   -1.56077442   0.20673559   2.19989847 
H   -0.95536608  -0.52578322   5.22812018 
H   -1.66999747   1.48795953   3.91320909 
H   -1.25685143  -3.11247757   1.75586120 
H   -0.84101020  -2.83466001   4.22233581 
H   -2.18128342   2.92990109   1.44066689 
C   -2.17656234  -1.27063108   0.06067804 
H   -3.12449503  -0.77116972   0.01746514 
H   -2.24044857  -2.37140920  -0.07433746 
O    2.13774051  -0.37101420  -1.39137727 
C    2.14790726  -0.54974481  -2.66165750 
O    1.29560150  -0.52366892  -3.65133740 
C    3.72306946  -0.69644608  -2.97282396 
H    3.83651462  -1.74175569  -3.29764067 
H    4.43140283  -0.46346987  -2.13080760 
H    3.96519049  -0.16545685  -3.91084537 
*
