30
Generated by autodE on: 2023-07-14. E = -35.297283 Ha
Lu    0.00680  -0.53216   0.28820
C     0.47072   0.40541   2.67803
C     1.60217  -0.36796   2.33114
C     2.26734   0.28938   1.27240
C     1.53084   1.44680   0.93990
C     0.41661   1.51901   1.81060
H     1.86422   2.23665   0.27642
H    -0.24165   2.37127   1.92573
H    -0.16223   0.24707   3.54081
H     1.99987  -1.19396   2.90919
H     3.25047   0.03574   0.89564
C     0.38391  -0.18119  -2.26162
C    -0.50360  -1.27677  -2.14396
C     1.52202  -1.91260  -1.29200
C     1.63815  -0.58452  -1.75501
H     0.19771   0.71926  -2.83436
C     0.19720  -2.34462  -1.53880
H    -1.49232  -1.33937  -2.57990
H     2.56128  -0.02718  -1.84924
H     2.34495  -2.54935  -0.98754
H    -0.16436  -3.36126  -1.44574
C    -2.15890  -1.24904   1.05065
H    -2.68909  -0.53645   1.70174
H    -2.11677  -2.17278   1.65274
H    -2.88723  -1.48477   0.25946
C    -1.96501   2.36968  -0.97008
H    -1.92614   1.37063  -0.51570
H    -0.97846   2.81990  -0.97822
H    -2.63693   2.99436  -0.39526
H    -2.33161   2.28883  -1.98522
