30
Generated by autodE on: 2023-07-14. E = -35.297223 Ha
Lu    0.09750   0.49199  -0.31185
C     0.22277   0.99631   2.22306
C     1.05219  -0.13283   2.01961
C     2.17201   0.28258   1.26821
C     2.02412   1.65540   0.97500
C     0.82635   2.10125   1.58179
H     2.78747   2.29469   0.54620
H     0.50803   3.13191   1.67094
H    -0.62476   1.04578   2.89508
H     0.95595  -1.08374   2.53035
H     3.05855  -0.30954   1.08096
C     0.92966  -0.02891  -2.71207
C    -0.30300  -0.70967  -2.59392
C     1.18565  -1.69506  -1.16675
C     1.85268  -0.64824  -1.83862
H     1.17472   0.69835  -3.47685
C    -0.15281  -1.72688  -1.62409
H    -1.16635  -0.56573  -3.22942
H     2.92014  -0.46328  -1.81974
H     1.65700  -2.44928  -0.54775
H    -0.86609  -2.51933  -1.43263
C    -2.34082  -1.68063   1.41341
H    -2.60227  -1.42287   2.43146
H    -3.12074  -2.30116   0.99085
H    -2.24820  -0.76449   0.81783
C    -1.87432   1.81096  -0.71204
H    -1.40615  -2.23314   1.41179
H    -1.66493   2.71867  -1.30374
H    -2.37690   2.19543   0.18892
H    -2.67742   1.31148  -1.27600
