! EnGrad PBEh-3c
%output 
xyzfile=True 
end 
%scf 
maxiter 250 
end
%output
Print[P_Hirshfeld] = 1
end
% maxcore
4000
*xyz 0 1
Pd   1.85793162   1.10915940  -0.76928815 
O   -0.31112746   2.42889968  -0.38155970 
O    0.12218439   0.28934779  -0.26475328 
O    3.68291278   1.81727225  -0.79514531 
O    3.36861594   0.97408959   1.22302222 
C   -0.71509013   1.24697529  -0.22758503 
C   -2.19084728   0.98522449  -0.11066760 
H   -2.67717820   1.82390853   0.36739174 
H   -2.47832933   0.07188557   0.39465524 
H   -2.61211408   0.92527368  -1.11245728 
C    4.09956867   1.50868670   0.39963414 
C    5.53493933   1.87240669   0.66954569 
H    5.79398961   1.73217821   1.71489866 
H    5.79052466   2.88722861   0.37134844 
H    6.16399808   1.19778375   0.09009586 
C    1.77122521   0.72275069  -2.76929037 
C    0.58318409   0.43142523  -3.46729562 
C    2.85095770  -0.22139038  -3.01182021 
C    0.33297422  -0.77358748  -4.12277977 
C    1.31359259  -1.76137527  -4.13393257 
C    2.57369783  -1.46776785  -3.60649735 
H   -0.66151339  -1.00432745  -4.49807341 
H    1.07965236  -2.78289317  -4.45236689 
H    1.51426844   2.15806778  -2.36471928 
H   -0.17788194   1.19706372  -3.41937857 
H    3.89005829  -0.06275005  -2.69016181 
H    3.30839771  -2.28128579  -3.56496944 
*
