! EnGrad PBEh-3c
%output 
xyzfile=True 
end 
%scf 
maxiter 250 
end
%output
Print[P_Hirshfeld] = 1
end
% maxcore
4000
*xyz 0 1
Pd   1.89761865   1.11685348  -0.77827966 
O   -0.35139612   2.49291437  -0.37831958 
O    0.12890214   0.31949105  -0.33315371 
O    3.73344009   1.79949680  -0.80858969 
O    3.32665749   0.99927014   1.19154223 
C   -0.72130591   1.25787660  -0.23450207 
C   -2.18844085   0.98446443  -0.10380445 
H   -2.67763139   1.81985252   0.37637081 
H   -2.46001873   0.06191458   0.39833316 
H   -2.59557003   0.91969985  -1.11117758 
C    4.10519140   1.52646769   0.39598743 
C    5.53512492   1.87402863   0.67481289 
H    5.78552315   1.74900694   1.71879541 
H    5.77977170   2.88851390   0.37169684 
H    6.16703307   1.20104648   0.09354670 
C    1.75239566   0.69336838  -2.77311614 
C    0.56336147   0.41798690  -3.43607518 
C    2.82238384  -0.22615903  -2.97921585 
C    0.33430269  -0.75992701  -4.13444978 
C    1.31454540  -1.74470593  -4.14127553 
C    2.56616963  -1.45356341  -3.60709975 
H   -0.65221917  -0.99750605  -4.51847783 
H    1.07946632  -2.76810819  -4.44319371 
H    1.59564896   1.98431152  -2.32634383 
H   -0.19609623   1.17966564  -3.40803903 
H    3.84899745  -0.05209505  -2.64307495 
H    3.31577148  -2.25455615  -3.59044587 
*
