! EnGrad PBEh-3c
%output 
xyzfile=True 
end 
%scf 
maxiter 250 
end
%output
Print[P_Hirshfeld] = 1
end
% maxcore
4000
*xyz 0 1
Pd   1.93157955   1.11095819  -0.70139397 
O   -0.39058145   2.51468446  -0.36897932 
O    0.12309989   0.32468449  -0.40163741 
O    3.76106289   1.80725459  -0.80633882 
O    3.28662107   0.97909500   1.11658240 
C   -0.73350121   1.30203900  -0.25018105 
C   -2.19487253   0.97856319  -0.10467712 
H   -2.68326253   1.82242928   0.37692754 
H   -2.44293891   0.05121329   0.40177998 
H   -2.58284065   0.90944240  -1.12323204 
C    4.11129213   1.53457364   0.38609756 
C    5.53969399   1.84823041   0.66936550 
H    5.78316549   1.72099880   1.70901767 
H    5.76431602   2.86792716   0.37343981 
H    6.16934899   1.19072147   0.06296469 
C    1.75625969   0.70271718  -2.84430786 
C    0.53492581   0.40823824  -3.41330458 
C    2.80459212  -0.21156760  -2.96405404 
C    0.33977219  -0.75662293  -4.10002182 
C    1.31990396  -1.73047686  -4.09339028 
C    2.56772297  -1.43226601  -3.57058899 
H   -0.63340413  -0.99077007  -4.49770837 
H    1.09222213  -2.74209410  -4.40238420 
H    1.65727856   1.87212550  -2.34047583 
H   -0.22126904   1.16137321  -3.40920147 
H    3.81540267  -0.00520920  -2.64628305 
H    3.33411247  -2.20438754  -3.58290641 
*
