! EnGrad PBEh-3c
%output 
xyzfile=True 
end 
%scf 
maxiter 250 
end
%output
Print[P_Hirshfeld] = 1
end
% maxcore
4000
*xyz 0 1
Pd   1.93831393   1.13326807  -0.65166007 
O   -0.41783004   2.51821184  -0.36229483 
O    0.12577524   0.39562720  -0.46204829 
O    3.79033803   1.80764924  -0.85851832 
O    3.25288602   1.01503238   1.08958873 
C   -0.72665098   1.36655914  -0.29198786 
C   -2.18296847   0.97959171  -0.10587894 
H   -2.69005316   1.81251358   0.38809638 
H   -2.40828705   0.03859245   0.40994982 
H   -2.57719633   0.90083249  -1.12218751 
C    4.11888777   1.53463468   0.35003983 
C    5.54389122   1.84349721   0.68931297 
H    5.78442661   1.72450674   1.73799858 
H    5.74946745   2.86996416   0.37267163 
H    6.17163858   1.19371234   0.07231032 
C    1.72937520   0.69651961  -2.82755602 
C    0.50781457   0.41126287  -3.41249191 
C    2.78616564  -0.20433845  -2.94404193 
C    0.32131005  -0.77646051  -4.09223364 
C    1.32395847  -1.73030962  -4.08851476 
C    2.56569409  -1.43075464  -3.57380119 
H   -0.63488585  -0.98038673  -4.53398287 
H    1.09713047  -2.72812580  -4.41038985 
H    1.78093101   1.63885890  -2.32972264 
H   -0.27035209   1.15810888  -3.37553356 
H    3.78132707   0.01332902  -2.57645879 
H    3.34741898  -2.16540882  -3.61444843 
*
