! EnGrad PBEh-3c
%output 
xyzfile=True 
end 
%scf 
maxiter 250 
end
%output
Print[P_Hirshfeld] = 1
end
% maxcore
4000
*xyz 0 1
Pd   1.92813907   1.13667833  -0.61556232 
O   -0.42123256   2.52975620  -0.35865317 
O    0.12402630   0.42020576  -0.46640722 
O    3.78569454   1.81229532  -0.86712880 
O    3.25489213   1.02709131   1.07578690 
C   -0.72383033   1.37802256  -0.31178121 
C   -2.17854329   0.98005833  -0.11238864 
H   -2.69450315   1.80420893   0.38868268 
H   -2.38678181   0.03903754   0.41063169 
H   -2.58291574   0.89513368  -1.12205628 
C    4.12285464   1.52906225   0.32664389 
C    5.54242330   1.83530110   0.69467664 
H    5.78772907   1.71277183   1.75051754 
H    5.74379264   2.86408612   0.37525347 
H    6.17262845   1.19330263   0.07459222 
C    1.71910052   0.65575051  -2.84459376 
C    0.49719131   0.41899515  -3.42406301 
C    2.78693745  -0.20008996  -2.94826501 
C    0.31103185  -0.78161722  -4.06964459 
C    1.32378373  -1.73437726  -4.07329381 
C    2.56777128  -1.42041236  -3.56363513 
H   -0.64254481  -0.98084347  -4.54487676 
H    1.10335737  -2.72889356  -4.41729723 
H    1.83016022   1.61459987  -2.34513964 
H   -0.29615159   1.15814228  -3.36057178 
H    3.77035784   0.02861037  -2.55619981 
H    3.36214430  -2.15093242  -3.61995650 
*
