! EnGrad PBEh-3c
%output 
xyzfile=True 
end 
%scf 
maxiter 250 
end
%output
Print[P_Hirshfeld] = 1
end
% maxcore
4000
*xyz 0 1
Pd   1.81744455   0.96777872  -0.40233545 
O   -0.28850089   2.21123702  -0.35211224 
O    0.01386755   0.04104372  -0.13926941 
O    3.48459955   2.00344102  -0.60430568 
O    3.41960698   0.59515496   1.04500282 
C   -0.75504770   1.28694401  -0.23362602 
C   -2.25697987   0.97177388  -0.17609040 
H   -2.70138562   1.86737995   0.28745091 
H   -2.53133507   0.09170725   0.37752421 
H   -2.64602374   0.90452470  -1.18592170 
C    4.12098796   1.45108078   0.36125261 
C    5.55739309   1.67052137   0.57222619 
H    5.83294833   1.42720525   1.56899128 
H    5.78776861   2.75116040   0.38433830 
H    6.14416694   1.11061376  -0.13913045 
C    1.89416419   0.90312684  -3.21254047 
C    0.64054429   0.51127690  -3.49111182 
C    2.97885685  -0.05830501  -3.15116311 
C    0.37708284  -0.81537897  -3.82933888 
C    1.34683807  -1.78477462  -3.79208312 
C    2.60678991  -1.44799764  -3.35861360 
H   -0.62098108  -1.04188571  -4.18026214 
H    1.15740352  -2.75006320  -4.22777963 
H    1.19177882   3.00844535  -2.70018947 
H   -0.14819433   1.18654804  -3.55122767 
H    3.99579077   0.15418636  -3.11866479 
H    3.38311153  -2.20511248  -3.29836944 
*
