! EnGrad PBEh-3c
%output 
xyzfile=True 
end 
%scf 
maxiter 250 
end
%output
Print[P_Hirshfeld] = 1
end
% maxcore
4000
*xyz 0 1
Pd   1.81654423   0.96143021  -0.40156390 
O   -0.25171819   2.29158370  -0.36147238 
O    0.01174168   0.05793632  -0.14133516 
O    3.49130113   2.00449821  -0.60170722 
O    3.42320325   0.60562468   1.04115375 
C   -0.78923699   1.19157926  -0.22336444 
C   -2.25516341   0.97816525  -0.17493136 
H   -2.70235383   1.86586812   0.28738137 
H   -2.53010458   0.09066502   0.37824855 
H   -2.64621176   0.90454508  -1.18634416 
C    4.11030852   1.44115407   0.36102279 
C    5.55728501   1.68010485   0.57062057 
H    5.83353792   1.42788117   1.57254376 
H    5.78807481   2.74880175   0.38496091 
H    6.14473903   1.10986019  -0.13875915 
C    1.90437921   0.90240653  -3.20813827 
C    0.64015976   0.50481767  -3.49249433 
C    2.96467694  -0.06520305  -3.15292115 
C    0.37469504  -0.81481471  -3.83052176 
C    1.34661583  -1.78404830  -3.79520550 
C    2.61109543  -1.44122641  -3.35721156 
H   -0.62094536  -1.04162350  -4.18205485 
H    1.15636507  -2.75113579  -4.22953454 
H    1.19275705   3.00491894  -2.69856748 
H   -0.15216274   1.18958884  -3.55086456 
H    4.00100074   0.15457992  -3.11627995 
H    3.38228371  -2.20623521  -3.30006707 
*
