! EnGrad PBEh-3c
%output 
xyzfile=True 
end 
%scf 
maxiter 250 
end
%output
Print[P_Hirshfeld] = 1
end
% maxcore
4000
*xyz 0 1
Pd   1.80870932   0.97900421  -0.41407189 
O   -0.24336805   2.30100879  -0.36548487 
O    0.01373487   0.06674591  -0.14138691 
O    3.49040902   1.99267702  -0.61063218 
O    3.43264688   0.61710102   1.04609081 
C   -0.78372386   1.17611572  -0.21860130 
C   -2.25572162   0.98061266  -0.17311589 
H   -2.70188911   1.86429228   0.28935231 
H   -2.52914669   0.08951477   0.37932495 
H   -2.64759283   0.90547450  -1.18552362 
C    4.10270473   1.44536486   0.36847469 
C    5.55832070   1.68841213   0.57423367 
H    5.83418492   1.43542352   1.58000574 
H    5.78653358   2.74977277   0.38440414 
H    6.14768995   1.11111237  -0.13250316 
C    1.90031586   0.89840886  -3.19507651 
C    0.63488283   0.49902439  -3.49454019 
C    2.95644038  -0.06927467  -3.14821351 
C    0.37399763  -0.81392087  -3.84268174 
C    1.34312791  -1.78692428  -3.80108451 
C    2.61358533  -1.43824849  -3.37185504 
H   -0.62040574  -1.03911456  -4.18994691 
H    1.15379388  -2.75373086  -4.23825437 
H    1.19998217   2.98500232  -2.68965702 
H   -0.15190518   1.19400618  -3.54594940 
H    4.00630396   0.14565718  -3.10430310 
H    3.37973866  -2.21201152  -3.30662050 
*
