! EnGrad PBEh-3c
%output 
xyzfile=True 
end 
%scf 
maxiter 250 
end
%output
Print[P_Hirshfeld] = 1
end
% maxcore
4000
*xyz 0 1
Pd   1.76481012   1.06497849  -0.48371930 
O   -0.20634443   2.32824527  -0.38306720 
O    0.01271724   0.15083856  -0.14583864 
O    3.49466000   1.93477336  -0.65934540 
O    3.46794534   0.68533470   1.08924855 
C   -0.73074209   1.09494521  -0.20040751 
C   -2.24983819   0.98956648  -0.15935911 
H   -2.70006401   1.85738854   0.30368595 
H   -2.52399431   0.08410021   0.38487709 
H   -2.65416222   0.91157364  -1.17915200 
C    4.07992284   1.46552972   0.39007291 
C    5.55336751   1.74278349   0.59605850 
H    5.83760636   1.48615064   1.62550948 
H    5.78183306   2.76287020   0.38132314 
H    6.16108200   1.12080247  -0.09027719 
C    1.87880658   0.87428399  -3.10903384 
C    0.61602872   0.47167690  -3.50466716 
C    2.92404362  -0.09589479  -3.12298016 
C    0.36384112  -0.81743077  -3.91490237 
C    1.33522716  -1.79578564  -3.84719896 
C    2.61852521  -1.42995412  -3.45335773 
H   -0.62367484  -1.02613001  -4.24501134 
H    1.13609053  -2.77066529  -4.29279101 
H    1.24886113   2.85082183  -2.63318649 
H   -0.15801397   1.22148652  -3.51621206 
H    4.01697150   0.08985217  -3.02678434 
H    3.36058992  -2.24136305  -3.35154336 
*
