! EnGrad PBEh-3c
%output 
xyzfile=True 
end 
%scf 
maxiter 250 
end
%output
Print[P_Hirshfeld] = 1
end
% maxcore
4000
*xyz 0 1
Pd   1.79462464   1.09785263  -0.64361686 
O   -0.25485234   2.32286214  -0.38224810 
O    0.09603008   0.23110105  -0.18939126 
O    3.59615556   1.86736530  -0.75563331 
O    3.41696782   0.87767464   1.21786853 
C   -0.71456099   1.23844199  -0.22458339 
C   -2.20313736   0.98681838  -0.13076063 
H   -2.68429566   1.83874793   0.34789427 
H   -2.50284080   0.07762212   0.39333579 
H   -2.63632925   0.92643298  -1.13190630 
C    4.09987406   1.48803737   0.37971790 
C    5.53891005   1.83186364   0.65135193 
H    5.81232136   1.65722986   1.69380498 
H    5.79615852   2.86098026   0.37118485 
H    6.15966150   1.17733810   0.04481373 
C    1.81295288   0.78934379  -2.88095887 
C    0.60195919   0.45648877  -3.49671427 
C    2.89498129  -0.18268953  -3.06061838 
C    0.34146238  -0.80002060  -4.05628893 
C    1.32378356  -1.78473783  -4.05415167 
C    2.58774137  -1.46816875  -3.56916951 
H   -0.66155239  -1.01219753  -4.42446992 
H    1.09514920  -2.78756844  -4.42139692 
H    1.40673667   2.41926290  -2.46576454 
H   -0.16635669   1.21804752  -3.44952615 
H    3.94350455  -0.03222986  -2.80656411 
H    3.31174932  -2.27989381  -3.49695848 
*
