! EnGrad PBEh-3c
%output 
xyzfile=True 
end 
%scf 
maxiter 250 
end
%output
Print[P_Hirshfeld] = 1
end
% maxcore
4000
*xyz 0 1
C   -1.51173945   0.18221967  -0.57299174 
C   -2.07578402  -0.87760908  -1.26948392 
C   -1.72683110  -2.17732446  -0.94805010 
C   -0.78803048  -2.43697527   0.03542451 
C   -0.66768105  -0.12101124   0.47714638 
C   -0.25542455  -1.39885264   0.78045456 
H   -1.85160382   1.15964928  -0.89676765 
H   -2.81275123  -0.69504521  -2.03755732 
H   -2.22508904  -3.00323539  -1.45419042 
H    0.47056563  -1.66692695   1.54066954 
H   -0.52333136  -3.45723508   0.26989299 
Pd   1.45436791   1.12572429  -0.11560642 
O    3.26818827   1.31333402  -1.20188531 
O    2.65934690  -0.53920282  -0.28295179 
O    0.37406904   2.83162275   0.14233003 
C   -0.01198310   2.95491742   1.30094572 
O    0.36686709   2.13185408   2.21212926 
H   -1.22949308   1.25722989   2.82688091 
C    3.46651814   0.10262308  -1.00251787 
H    4.35905641  -0.41585112  -1.37906728 
H   -0.73923113   3.73008475   1.57520790 
*
