! EnGrad PBEh-3c
%output 
xyzfile=True 
end 
%scf 
maxiter 250 
end
%output
Print[P_Hirshfeld] = 1
end
% maxcore
4000
*xyz 0 1
C   -1.60102665   0.20341026  -0.37889961 
C   -2.01458642  -0.83183101  -1.20835446 
C   -1.56670554  -2.12988984  -1.00427319 
C   -0.74510833  -2.38018660   0.08392918 
C   -0.69722665  -0.00716713   0.69472424 
C   -0.34688216  -1.35190197   0.92754029 
H   -1.93724457   1.21899480  -0.58806704 
H   -2.59809650  -0.61435416  -2.08743834 
H   -1.83291780  -2.93125961  -1.68349141 
H    0.33408704  -1.55262798   1.74980165 
H   -0.33949811  -3.36427285   0.23697171 
Pd   1.25752572   0.95523516   0.00502181 
O    3.01963659   1.23992769  -1.30566974 
O    2.51523346  -0.55984714  -0.17039301 
O    0.35109030   2.71253940   0.21399402 
C   -0.10365821   2.86970665   1.37173558 
O   -0.08559295   2.01901782   2.26194798 
H   -0.39753999   1.06783340   1.71145753 
C    3.25637489   0.05176241  -0.99936877 
H    4.10717190  -0.50080601  -1.40013638 
H   -0.58467065   3.86107526   1.54007476 
*
