! EnGrad PBEh-3c
%output 
xyzfile=True 
end 
%scf 
maxiter 250 
end
%output
Print[P_Hirshfeld] = 1
end
% maxcore
4000
*xyz 0 1
C   -1.52556260   0.17842095  -0.57560301 
C   -2.07726900  -0.88310484  -1.26800497 
C   -1.73239294  -2.18407126  -0.95290512 
C   -0.79467373  -2.44110011   0.03751215 
C   -0.63726429  -0.09283266   0.47689150 
C   -0.25582168  -1.40730255   0.78146050 
H   -1.84376066   1.16347468  -0.88862380 
H   -2.81249317  -0.69374848  -2.03995879 
H   -2.22080769  -3.00062971  -1.45394563 
H    0.46938300  -1.65874166   1.54160176 
H   -0.52146670  -3.45890036   0.26941836 
Pd   1.42779158   1.10443541  -0.09385569 
O    3.27318622   1.32313272  -1.20949102 
O    2.64430387  -0.53568645  -0.28358303 
O    0.38203327   2.83518757   0.10985984 
C   -0.00961283   2.92536339   1.34740083 
O    0.33718149   2.14025887   2.20773164 
H   -1.19955445   1.26368529   2.80134575 
C    3.47481314   0.10141690  -0.99573408 
H    4.35846784  -0.41403641  -1.38234266 
H   -0.73668381   3.73375557   1.56987868 
*
