! EnGrad PBEh-3c
%output 
xyzfile=True 
end 
%scf 
maxiter 250 
end
%output
Print[P_Hirshfeld] = 1
end
% maxcore
4000
*xyz 0 1
C   -1.55833274   0.16793436  -0.52967134 
C   -2.08952391  -0.89613821  -1.26230537 
C   -1.72218986  -2.19750960  -0.96423906 
C   -0.82059844  -2.44947966   0.05736686 
C   -0.49808636   0.00948655   0.46076991 
C   -0.27599663  -1.38955985   0.78599103 
H   -1.81934816   1.18546953  -0.82361218 
H   -2.79035602  -0.68474280  -2.06215761 
H   -2.17577150  -3.00845849  -1.49444012 
H    0.45130891  -1.61319699   1.56685674 
H   -0.49414263  -3.46626339   0.26092307 
Pd   1.26578664   0.99586593   0.01528090 
O    3.28115214   1.32208734  -1.24548819 
O    2.57758304  -0.51592685  -0.28310274 
O    0.39401799   2.81909056   0.09907330 
C   -0.03384139   2.92356844   1.32593285 
O    0.20475385   2.05354461   2.31498691 
H   -0.99430404   1.28620682   2.59437169 
C    3.46014536   0.12701757  -0.96298143 
H    4.33333481  -0.41926794  -1.39957936 
H   -0.69656530   3.74050329   1.53841164 
*
