! EnGrad PBEh-3c
%output 
xyzfile=True 
end 
%scf 
maxiter 250 
end
%output
Print[P_Hirshfeld] = 1
end
% maxcore
4000
*xyz 0 1
C   -1.54582979   0.17389185  -0.52693321 
C   -2.08294495  -0.88625248  -1.25620142 
C   -1.71475794  -2.19187871  -0.96623996 
C   -0.81065283  -2.44101697   0.05937834 
C   -0.53741244  -0.02228372   0.46689115 
C   -0.27294696  -1.38265059   0.79026794 
H   -1.83080715   1.18059859  -0.82377051 
H   -2.78502317  -0.68394144  -2.06231230 
H   -2.16693598  -3.00776143  -1.50109318 
H    0.44660083  -1.61842595   1.56900244 
H   -0.49092211  -3.46072517   0.26017791 
Pd   1.29311421   1.01500942  -0.00278031 
O    3.26812973   1.31760550  -1.24356230 
O    2.58925294  -0.52178473  -0.27721903 
O    0.38220699   2.81896604   0.12986724 
C   -0.01422296   2.89377795   1.33798148 
O    0.19511271   2.08255603   2.27097384 
H   -0.99673031   1.28472074   2.59289171 
C    3.45005561   0.11754122  -0.97211972 
H    4.32374202  -0.42310038  -1.39541747 
H   -0.70023720   3.74661069   1.54324028 
*
