! EnGrad PBEh-3c
%output 
xyzfile=True 
end 
%scf 
maxiter 250 
end
%output
Print[P_Hirshfeld] = 1
end
% maxcore
4000
*xyz 0 1
C   -1.53510902   0.18017869  -0.50322962 
C   -2.07842599  -0.87498495  -1.24669130 
C   -1.69616650  -2.18433293  -0.96911210 
C   -0.80391120  -2.43011819   0.06820587 
C   -0.55315771  -0.03942520   0.47093660 
C   -0.27738242  -1.36314720   0.79831468 
H   -1.84106293   1.18107635  -0.80135665 
H   -2.76759534  -0.67957305  -2.06895430 
H   -2.13824982  -3.01165265  -1.52761464 
H    0.43350551  -1.61134709   1.58234474 
H   -0.47628882  -3.45397053   0.25630346 
Pd   1.28108575   1.01042911   0.00178495 
O    3.24939131   1.30537950  -1.25040712 
O    2.58674327  -0.52510861  -0.26785014 
O    0.37245646   2.80363257   0.17990536 
C   -0.02411363   2.91128948   1.29692508 
O    0.15396142   2.04821016   2.29011988 
H   -0.92696890   1.28895671   2.51334948 
C    3.42446976   0.11586092  -0.97629694 
H    4.29982702  -0.43151944  -1.39412429 
H   -0.68478386   3.75029255   1.53915916 
*
