! EnGrad PBEh-3c
%output 
xyzfile=True 
end 
%scf 
maxiter 250 
end
%output
Print[P_Hirshfeld] = 1
end
% maxcore
4000
*xyz 0 1
C   -1.53773129   0.18740855  -0.46552524 
C   -2.06691802  -0.86094025  -1.23277894 
C   -1.66411736  -2.17455073  -0.97994951 
C   -0.79307412  -2.41422310   0.08004229 
C   -0.56932271  -0.04137216   0.49530986 
C   -0.28936035  -1.34459170   0.81999842 
H   -1.85872742   1.18558072  -0.75251854 
H   -2.73100290  -0.66918755  -2.08144218 
H   -2.07638156  -3.01084154  -1.57469617 
H    0.40732698  -1.59353335   1.61187797 
H   -0.44524185  -3.43902926   0.24810793 
Pd   1.24914878   0.99174580   0.02286324 
O    3.21278274   1.28987883  -1.27241073 
O    2.57188647  -0.52745931  -0.24665822 
O    0.37418258   2.77963107   0.20610900 
C   -0.05214242   2.92323737   1.28541330 
O    0.07800426   1.99498260   2.31720107 
H   -0.79517924   1.28840616   2.35294358 
C    3.38392928   0.10735411  -0.98009790 
H    4.25529856  -0.44827389  -1.39631589 
H   -0.65654663   3.76302076   1.53098899 
*
