! EnGrad PBEh-3c
%output 
xyzfile=True 
end 
%scf 
maxiter 250 
end
%output
Print[P_Hirshfeld] = 1
end
% maxcore
4000
*xyz 1 1
Ir   0.43927742  -0.64384360   1.03029685 
C   -0.03057574  -2.61561278   1.91569262 
C    1.12890174  -2.06991963   2.56382617 
C    1.61585273  -2.36212580   0.32050788 
C    0.32108994  -2.82443061   0.53844198 
C    2.13216172  -1.89506898   1.62417516 
N   -0.91260035   0.04528620  -0.39446336 
C   -2.36020391   0.16951271   0.01465421 
C   -2.82147621   1.61860217   0.07125004 
H   -3.85186575   1.64366359   0.45209725 
H   -2.81207143   2.09216943  -0.90314829 
H   -2.23028552   2.20512989   0.74569043 
C   -3.27070653  -0.66655167  -0.88946616 
H   -2.41136771  -0.23780975   1.00823982 
H   -4.27276235  -0.68904879  -0.44144258 
H   -3.39241495  -0.24156773  -1.88359284 
H   -2.93057892  -1.68351898  -0.98141223 
C   -0.61863448   0.29348760  -1.62659308 
C    0.66399422   0.19138295  -2.24920353 
H   -1.43131386   0.55547340  -2.28514210 
C    2.01728713   0.36527075  -1.62042965 
C    2.94848530   0.11835449  -2.71409880 
S    0.74705241  -0.03932717  -3.97049144 
C    2.45367367  -0.06593454  -3.95050789 
H    2.23923947   0.82766226  -0.84293232 
H    4.01750212   0.16198650  -2.48678202 
H    3.01131419  -0.23337801  -4.85362431 
H   -0.90628793  -3.00464497   2.39784929 
H    1.19611258  -1.90303412   3.63485957 
H    3.11300328  -1.50601576   1.76605818 
O    1.46094134   1.45851661   0.98653097 
O   -0.23749031   0.93544370   2.19983986 
C    0.65053110   1.82669750   1.77932177 
C    0.58569517   3.23958765   2.34496113 
H    0.76920465   3.94974493   1.52767471 
H    1.40532598   3.37661096   3.05551288 
H   -0.34184302   3.45354416   2.82918178 
H    2.21131271  -2.49592922  -0.54418985 
H   -0.29625766  -3.35057432  -0.16873694 
*
