! EnGrad PBEh-3c
%output 
xyzfile=True 
end 
%scf 
maxiter 250 
end
%output
Print[P_Hirshfeld] = 1
end
% maxcore
4000
*xyz 1 1
Ir   0.43936774  -0.65290602   1.02937017 
C   -0.02694710  -2.61300813   1.90952105 
C    1.12451414  -2.06990244   2.56989351 
C    1.62012793  -2.35627998   0.33203083 
C    0.31830817  -2.82447806   0.54229346 
C    2.12792598  -1.89739482   1.61429195 
N   -0.91395779   0.04736260  -0.39477699 
C   -2.35776221   0.16950278   0.00957770 
C   -2.82527923   1.61443260   0.07250085 
H   -3.85064280   1.64356902   0.45226979 
H   -2.81195881   2.09294692  -0.90302498 
H   -2.22885410   2.20593113   0.74851388 
C   -3.27326526  -0.66271831  -0.88668898 
H   -2.41170681  -0.23936915   1.01022284 
H   -4.27183176  -0.68941760  -0.44247252 
H   -3.39267342  -0.24078938  -1.88407798 
H   -2.93008247  -1.68547422  -0.98258237 
C   -0.61882785   0.29119138  -1.62299227 
C    0.68023423   0.19753899  -2.23878387 
H   -1.43319048   0.55597620  -2.28640537 
C    1.98547474   0.32733783  -1.69674270 
C    2.95329407   0.12551076  -2.69642018 
S    0.74932675  -0.03868030  -3.96475544 
C    2.44895705  -0.06743673  -3.95171952 
H    2.25344259   0.85475790  -0.79660547 
H    4.01576655   0.16082667  -2.48895830 
H    3.01195937  -0.23333878  -4.85391915 
H   -0.90794471  -3.00539075   2.39676810 
H    1.19408292  -1.90303701   3.63385250 
H    3.11540509  -1.50469027   1.76924911 
O    1.47569750   1.45230541   0.97139176 
O   -0.22642875   0.94331467   2.19320756 
C    0.62399114   1.83110849   1.80264786 
C    0.59267836   3.23659422   2.33807233 
H    0.76876516   3.94995776   1.52863983 
H    1.40547340   3.37711292   3.05478703 
H   -0.34433623   3.45346002   2.83015916 
H    2.21514163  -2.49604105  -0.54699670 
H   -0.29507610  -3.35061180  -0.17092185 
*
