! EnGrad PBEh-3c
%output 
xyzfile=True 
end 
%scf 
maxiter 250 
end
%output
Print[P_Hirshfeld] = 1
end
% maxcore
4000
*xyz 1 1
Ir   0.46531587  -0.65213209   1.04372461 
C   -0.04772845  -2.61603085   1.84412121 
C    1.05603114  -2.08378052   2.58832422 
C    1.71209803  -2.36511358   0.39984333 
C    0.39131563  -2.84129742   0.51650302 
C    2.12002124  -1.88921482   1.68524081 
N   -0.92630849   0.04587340  -0.40172455 
C   -2.36525833   0.14687899   0.00975020 
C   -2.83194438   1.59459165   0.13329810 
H   -3.86170725   1.59803421   0.49185074 
H   -2.82807498   2.10411023  -0.83592677 
H   -2.22592194   2.15786692   0.84821976 
C   -3.29177708  -0.65112744  -0.90351563 
H   -2.41790634  -0.30514631   1.00666764 
H   -4.28262403  -0.68905077  -0.45407654 
H   -3.42132979  -0.18917247  -1.88498922 
H   -2.95203608  -1.68187673  -1.04535071 
C   -0.62044116   0.30165475  -1.61999077 
C    0.68523594   0.23225592  -2.23099718 
H   -1.44668674   0.55501384  -2.29426024 
C    1.96204542   0.38842992  -1.76254678 
C    2.95784613   0.10464205  -2.69434050 
S    0.74164784  -0.04057554  -3.93531885 
C    2.43592677  -0.08320248  -3.94658957 
H    2.19224314   0.77434563  -0.77638364 
H    4.00364718   0.14730201  -2.47107666 
H    2.99929330  -0.21553998  -4.85125066 
H   -0.95427507  -3.01359120   2.27868350 
H    1.05503686  -1.87349472   3.64311338 
H    3.08930383  -1.47703716   1.92291302 
O    1.47661943   1.37823028   0.91672406 
O   -0.19492259   0.99149344   2.17422427 
C    0.64324234   1.83416154   1.76584081 
C    0.62945233   3.23767538   2.28542425 
H    0.77316457   3.96848700   1.49480951 
H    1.44387566   3.39619230   2.99635304 
H   -0.30627590   3.47158390   2.81186644 
H    2.33022033  -2.43941275  -0.48701579 
H   -0.19244682  -3.32265434  -0.26039372 
*
