! EnGrad PBEh-3c
%output 
xyzfile=True 
end 
%scf 
maxiter 250 
end
%output
Print[P_Hirshfeld] = 1
end
% maxcore
4000
*xyz 1 1
Ir   0.47830510  -0.65679920   1.04245852 
C   -0.06417520  -2.62273274   1.80533857 
C    1.00995585  -2.08578487   2.59458524 
C    1.76759059  -2.36661362   0.43187977 
C    0.44627138  -2.84645976   0.48998683 
C    2.11721717  -1.87998223   1.75391981 
N   -0.92736290   0.04238433  -0.39650517 
C   -2.36946285   0.12891123   0.01649347 
C   -2.83177959   1.57858450   0.17640025 
H   -3.86987110   1.56660446   0.52396984 
H   -2.83574001   2.11139850  -0.77967193 
H   -2.23113616   2.11763958   0.91165585 
C   -3.30151183  -0.64603764  -0.91982959 
H   -2.42079891  -0.34894463   0.99507517 
H   -4.29254678  -0.68929341  -0.46125285 
H   -3.44141855  -0.15294150  -1.88392647 
H   -2.97018713  -1.67061520  -1.09015390 
C   -0.63366897   0.31099428  -1.61989450 
C    0.66898490   0.25871664  -2.24366943 
H   -1.44845356   0.55246894  -2.29606940 
C    1.96162138   0.41834483  -1.74900544 
C    2.95066784   0.10602594  -2.70453818 
S    0.73235014  -0.04381419  -3.93333620 
C    2.42979918  -0.09650993  -3.94249901 
H    2.15386418   0.71948618  -0.77855917 
H    4.00430672   0.13485987  -2.45772380 
H    2.98953678  -0.20674016  -4.85327354 
H   -0.98930870  -3.01844389   2.19122140 
H    0.95259739  -1.85519762   3.65081144 
H    3.06814149  -1.45868563   2.03368152 
O    1.46919325   1.34682653   0.89604343 
O   -0.18775378   1.00517991   2.16888046 
C    0.67592980   1.83176626   1.72226475 
C    0.65044093   3.24781019   2.25457028 
H    0.77859314   3.98284464   1.46479658 
H    1.47285001   3.40775718   2.95250170 
H   -0.26940135   3.47660793   2.79066422 
H    2.41123434  -2.39828532  -0.43359880 
H   -0.11101686  -3.30196765  -0.32102952 
*
