! EnGrad PBEh-3c
%output 
xyzfile=True 
end 
%scf 
maxiter 250 
end
%output
Print[P_Hirshfeld] = 1
end
% maxcore
4000
*xyz 1 1
Ir   0.46861078  -0.65331597   1.04340345 
C   -0.05190040  -2.61773088   1.83428343 
C    1.04434347  -2.08428895   2.58991242 
C    1.72617453  -2.36549408   0.40796984 
C    0.40525596  -2.84260692   0.50977680 
C    2.11930994  -1.88687284   1.70266225 
N   -0.92657596   0.04498835  -0.40040058 
C   -2.36632487   0.14232120   0.01146073 
C   -2.83190258   1.59053120   0.14423159 
H   -3.86377813   1.59006159   0.49999822 
H   -2.83001932   2.10595900  -0.82165690 
H   -2.22724460   2.14766267   0.86431125 
C   -3.29424644  -0.64983634  -0.90765390 
H   -2.41864008  -0.31625640   1.00372704 
H   -4.28514108  -0.68911232  -0.45589691 
H   -3.42642559  -0.17998195  -1.88471964 
H   -2.95664036  -1.67902008  -1.05671569 
C   -0.62379659   0.30402385  -1.61996635 
C    0.68111363   0.23896807  -2.23421168 
H   -1.44713492   0.55436829  -2.29471916 
C    1.96193786   0.39601828  -1.75911182 
C    2.95602525   0.10499309  -2.69692729 
S    0.73928934  -0.04139707  -3.93481592 
C    2.43437242  -0.08657811  -3.94555194 
H    2.18250775   0.76042972  -0.77693549 
H    4.00381448   0.14414588  -2.46768951 
H    2.99681842  -0.21330778  -4.85176379 
H   -0.96316186  -3.01482216   2.25649745 
H    1.02905159  -1.86885339   3.64506611 
H    3.08393569  -1.47238202   1.95101107 
O    1.47473567   1.37026426   0.91147812 
O   -0.19310411   0.99496521   2.17286874 
C    0.65153400   1.83355394   1.75478711 
C    0.63477640   3.24024622   2.27759769 
H    0.77454160   3.97212903   1.48719629 
H    1.45122542   3.39912591   2.98522950 
H   -0.29692213   3.47285832   2.80648818 
H    2.35077072  -2.42898017  -0.47346579 
H   -0.17179092  -3.31740686  -0.27577488 
*
