! EnGrad PBEh-3c
%output 
xyzfile=True 
end 
%scf 
maxiter 250 
end
%output
Print[P_Hirshfeld] = 1
end
% maxcore
4000
*xyz 1 1
Ir   0.42767733  -0.68550220   1.04692961 
C    0.02421263  -2.57833406   2.01561049 
C    1.25510116  -2.05510581   2.54242574 
C    1.50254786  -2.35580787   0.25975658 
C    0.19163442  -2.80062540   0.62760885 
C    2.15435968  -1.92329407   1.45329887 
N   -0.88217388   0.06727446  -0.37720605 
C   -2.31827458   0.21118368  -0.00837223 
C   -2.79098864   1.65574941  -0.03233815 
H   -3.81122860   1.72465831   0.34331293 
H   -2.77469629   2.07045373  -1.04074470 
H   -2.17424821   2.29786181   0.59013537 
C   -3.23353086  -0.67639519  -0.84149831 
H   -2.39374650  -0.12340103   1.02452166 
H   -4.23627688  -0.67618948  -0.41583289 
H   -3.32606871  -0.33667892  -1.87405751 
H   -2.88592662  -1.70886809  -0.86134470 
C   -0.57828613   0.28024474  -1.60208901 
C    0.70450437   0.20348364  -2.24094687 
H   -1.39039194   0.54276938  -2.27895967 
C    1.98107616   0.32326607  -1.76770905 
C    2.99144403   0.17640424  -2.72882862 
S    0.77018601  -0.09415247  -3.93652064 
C    2.46440639  -0.09173301  -3.96117374 
H    2.29882066   0.85954083  -0.75488497 
H    4.05391299   0.21320214  -2.54060433 
H    3.00955241  -0.27620643  -4.87398287 
H   -0.83541545  -2.87867885   2.59483155 
H    1.45823529  -1.87689827   3.58634877 
H    3.15969010  -1.53178543   1.50494810 
O    1.39406967   1.39764029   1.06834077 
O   -0.29786558   0.89600368   2.26055120 
C    0.52543502   1.77730941   1.90453006 
C    0.51922296   3.17420577   2.40611931 
H    0.73788066   3.88479044   1.61094981 
H    1.29293410   3.30299041   3.16506533 
H   -0.43962979   3.40878504   2.86066556 
H    1.96066004  -2.50254931  -0.70252972 
H   -0.50880145  -3.29560543  -0.02631807 
*
