! EnGrad PBEh-3c
%output 
xyzfile=True 
end 
%scf 
maxiter 250 
end
%output
Print[P_Hirshfeld] = 1
end
% maxcore
4000
*xyz 1 1
Ir   0.43888764  -0.65563964   1.06458903 
C    0.02439064  -2.57999550   2.00965208 
C    1.25395027  -2.05889884   2.53186151 
C    1.49711769  -2.36965919   0.26111661 
C    0.21428459  -2.80127681   0.62064901 
C    2.14951571  -1.92398997   1.47556603 
N   -0.88507984   0.06288583  -0.38193438 
C   -2.32819848   0.20946684   0.00385235 
C   -2.78578145   1.65920493  -0.03104211 
H   -3.81319696   1.71888007   0.34801757 
H   -2.77896822   2.07133821  -1.03487224 
H   -2.17500209   2.29325449   0.60077858 
C   -3.23152935  -0.67945943  -0.84766317 
H   -2.39395267  -0.13090524   1.02414506 
H   -4.23754079  -0.67515614  -0.41628154 
H   -3.33076144  -0.33124294  -1.87459754 
H   -2.88889247  -1.70896981  -0.86723296 
C   -0.58025904   0.28808997  -1.61270516 
C    0.70419821   0.19799216  -2.24115496 
H   -1.39459254   0.54221799  -2.27867306 
C    2.03171693   0.38792332  -1.67582275 
C    2.98147910   0.15996688  -2.73879196 
S    0.76177392  -0.09854331  -3.95238172 
C    2.46461642  -0.09001491  -3.96207334 
H    2.26619235   0.81272279  -0.81836159 
H    4.05064754   0.21518676  -2.53498362 
H    3.00746902  -0.27423547  -4.87462329 
H   -0.84243493  -2.87883915   2.58579908 
H    1.44593453  -1.87108975   3.58898323 
H    3.15800690  -1.52831286   1.51918341 
O    1.38667442   1.37905955   1.06367492 
O   -0.31255011   0.89318340   2.26895029 
C    0.55150460   1.77047925   1.87634698 
C    0.51528411   3.17945705   2.41045040 
H    0.73903589   3.88589167   1.60567463 
H    1.29852934   3.30503961   3.15982370 
H   -0.43450010   3.41389726   2.86011163 
H    1.97453613  -2.49706899  -0.69937318 
H   -0.50318239  -3.29256143  -0.03615389 
*
