! EnGrad PBEh-3c
%output 
xyzfile=True 
end 
%scf 
maxiter 250 
end
%output
Print[P_Hirshfeld] = 1
end
% maxcore
4000
*xyz 1 1
Ir   0.43947708  -0.65473583   1.06647351 
C    0.02363094  -2.57968930   2.00665369 
C    1.25081296  -2.05904430   2.53994476 
C    1.50497604  -2.36855376   0.26293588 
C    0.21132074  -2.80440055   0.61908745 
C    2.15147619  -1.92385387   1.47236313 
N   -0.88547217   0.06332563  -0.38321934 
C   -2.32805053   0.20936195   0.00149688 
C   -2.78744301   1.65835841  -0.02821609 
H   -3.81235053   1.71762235   0.34885570 
H   -2.77980133   2.07194159  -1.03413526 
H   -2.17481075   2.29235345   0.60397951 
C   -3.23314083  -0.67859771  -0.84706028 
H   -2.39434226  -0.13363679   1.02633064 
H   -4.23707831  -0.67522140  -0.41711447 
H   -3.33185180  -0.32952857  -1.87512417 
H   -2.88932608  -1.70979760  -0.86907787 
C   -0.58109328   0.28793889  -1.61138308 
C    0.71982328   0.20195584  -2.23196513 
H   -1.39693460   0.54248678  -2.27981695 
C    2.01436301   0.37326884  -1.72252692 
C    2.98324227   0.16237883  -2.72462619 
S    0.76239598  -0.09840801  -3.94948489 
C    2.46076048  -0.09077054  -3.96387386 
H    2.27064585   0.82153732  -0.79363573 
H    4.04828243   0.21485045  -2.53581787 
H    3.00752676  -0.27380019  -4.87461877 
H   -0.84358798  -2.87882415   2.58245647 
H    1.44188653  -1.87029769   3.58694608 
H    3.15661219  -1.52802626   1.52376962 
O    1.39330611   1.37158102   1.05438845 
O   -0.30731426   0.89852300   2.26607861 
C    0.53968204   1.77133992   1.88510159 
C    0.51933961   3.17786508   2.40611298 
H    0.73896162   3.88621101   1.60535469 
H    1.30002981   3.30577769   3.15845424 
H   -0.43513277   3.41493329   2.86065604 
H    1.97779318  -2.49567551  -0.69745016 
H   -0.49947525  -3.29037749  -0.03769552 
*
