! EnGrad PBEh-3c
%output 
xyzfile=True 
end 
%scf 
maxiter 250 
end
%output
Print[P_Hirshfeld] = 1
end
% maxcore
4000
*xyz 1 1
Ir   0.44153566  -0.65276510   1.06894302 
C    0.02261957  -2.57956379   2.00396292 
C    1.24822628  -2.05942057   2.54397522 
C    1.51118954  -2.36829001   0.26516347 
C    0.21124239  -2.80635967   0.61819848 
C    2.15222105  -1.92393701   1.47170236 
N   -0.88620585   0.06379468  -0.38432970 
C   -2.32816647   0.20885051   0.00032699 
C   -2.78841055   1.65791701  -0.02579702 
H   -3.81167274   1.71619831   0.34978548 
H   -2.78083526   2.07252242  -1.03315519 
H   -2.17453026   2.29135989   0.60753955 
C   -3.23432441  -0.67806364  -0.84699643 
H   -2.39468158  -0.13655578   1.02817764 
H   -4.23674604  -0.67522419  -0.41787168 
H   -3.33307260  -0.32772344  -1.87553306 
H   -2.88983551  -1.71057833  -0.87101857 
C   -0.57940442   0.28837638  -1.61055956 
C    0.72806818   0.20473875  -2.22700578 
H   -1.39904267   0.54262768  -2.28116451 
C    2.00651465   0.37184507  -1.74177123 
C    2.98435595   0.16203972  -2.72027536 
S    0.76271327  -0.09876540  -3.94664094 
C    2.45863706  -0.09112732  -3.96280068 
H    2.26927553   0.82025854  -0.78595203 
H    4.04638713   0.21508951  -2.53572185 
H    3.00733139  -0.27336670  -4.87483170 
H   -0.84497715  -2.87815201   2.57865129 
H    1.43782109  -1.86861730   3.58634241 
H    3.15557881  -1.52745572   1.52875936 
O    1.39361471   1.36368562   1.04996978 
O   -0.30481731   0.90296113   2.26494946 
C    0.53567529   1.77038321   1.88667468 
C    0.52188068   3.17646802   2.40289436 
H    0.73894929   3.88632876   1.60457849 
H    1.30164592   3.30625593   3.15684136 
H   -0.43488742   3.41611469   2.86091661 
H    1.98158356  -2.49356563  -0.69601563 
H   -0.49657191  -3.28778322  -0.04019885 
*
