! EnGrad PBEh-3c
%output 
xyzfile=True 
end 
%scf 
maxiter 250 
end
%output
Print[P_Hirshfeld] = 1
end
% maxcore
4000
*xyz 1 1
Ir   0.44935301  -0.64833733   1.07512894 
C    0.01892287  -2.57968590   1.99687746 
C    1.24064328  -2.06060413   2.54668970 
C    1.52578574  -2.36869114   0.27196751 
C    0.21804749  -2.80873745   0.61677389 
C    2.15296133  -1.92383430   1.47688822 
N   -0.88776494   0.06545044  -0.38600780 
C   -2.32862756   0.20593102  -0.00023026 
C   -2.78940454   1.65695588  -0.01926931 
H   -3.81082242   1.71142474   0.35364808 
H   -2.78432429   2.07421464  -1.02837056 
H   -2.17404722   2.28754947   0.61926173 
C   -3.23671307  -0.67726405  -0.84863248 
H   -2.39554219  -0.14575852   1.03163106 
H   -4.23683529  -0.67522418  -0.41984014 
H   -3.33724509  -0.32181701  -1.87627601 
H   -2.89196694  -1.71207974  -0.87762685 
C   -0.57255643   0.29130603  -1.60949699 
C    0.72877726   0.21098896  -2.22403918 
H   -1.40234859   0.54217571  -2.28451648 
C    2.00255856   0.38254715  -1.76014308 
C    2.98712738   0.15805146  -2.72410790 
S    0.76270847  -0.10039580  -3.93711337 
C    2.45713667  -0.09270367  -3.95811233 
H    2.25882505   0.80612735  -0.77970310 
H    4.04276339   0.21642802  -2.53354393 
H    3.00527576  -0.27172785  -4.87408330 
H   -0.85026683  -2.87542571   2.56532088 
H    1.42452229  -1.86200104   3.58869296 
H    3.15322836  -1.52519019   1.54575412 
O    1.38595529   1.33920529   1.04315751 
O   -0.30433008   0.91204052   2.26547268 
C    0.53719821   1.76920821   1.88058829 
C    0.52694636   3.17286855   2.39516314 
H    0.73931661   3.88674093   1.60070896 
H    1.30699563   3.30720129   3.15053498 
H   -0.43083135   3.41928435   2.86018700 
H    1.99522658  -2.48573329  -0.69159457 
H   -0.48862017  -3.27955915  -0.05068659 
*
