! EnGrad PBEh-3c
%output 
xyzfile=True 
end 
%scf 
maxiter 250 
end
%output
Print[P_Hirshfeld] = 1
end
% maxcore
4000
*xyz 1 1
Ir   0.45248247  -0.65174135   1.07601188 
C    0.01615914  -2.57971239   1.99132489 
C    1.23387913  -2.05970158   2.55139725 
C    1.53789942  -2.36714927   0.27641425 
C    0.22331776  -2.80956117   0.61392673 
C    2.15566503  -1.92279569   1.48337414 
N   -0.88564059   0.06765987  -0.38466387 
C   -2.32732659   0.20290932  -0.00037521 
C   -2.78942507   1.65496918  -0.01344175 
H   -3.81102484   1.70743000   0.35792470 
H   -2.78694203   2.07560694  -1.02245823 
H   -2.17424280   2.28347197   0.62919762 
C   -3.23809111  -0.67674718  -0.85069754 
H   -2.39595540  -0.15344930   1.03212550 
H   -4.23786826  -0.67548094  -0.42127393 
H   -3.34081694  -0.31657749  -1.87654437 
H   -2.89424767  -1.71228698  -0.88394265 
C   -0.57604809   0.29455474  -1.60716474 
C    0.73026495   0.21871917  -2.22583818 
H   -1.40016213   0.54057402  -2.28540734 
C    1.99433106   0.38377708  -1.77878044 
C    2.98967544   0.16006418  -2.72319419 
S    0.76248350  -0.10206305  -3.92831122 
C    2.45564435  -0.09689405  -3.96076497 
H    2.25295474   0.79732690  -0.76922187 
H    4.04285240   0.21738385  -2.53208432 
H    3.00209146  -0.27053190  -4.87212095 
H   -0.85662575  -2.87273094   2.55287803 
H    1.41174517  -1.85624279   3.59042730 
H    3.15208509  -1.52323822   1.56205636 
O    1.38119803   1.31981297   1.03684739 
O   -0.30331796   0.91987932   2.26568987 
C    0.53309324   1.76742521   1.87957955 
C    0.53264852   3.17102923   2.38760089 
H    0.73996517   3.88717047   1.59657601 
H    1.31150065   3.30709649   3.14335321 
H   -0.42460635   3.41992208   2.85761315 
H    2.00793838  -2.47786889  -0.68646354 
H   -0.48022081  -3.27072137  -0.06033044 
*
