! EnGrad PBEh-3c
%output 
xyzfile=True 
end 
%scf 
maxiter 250 
end
%output
Print[P_Hirshfeld] = 1
end
% maxcore
4000
*xyz 1 1
Ir   0.45609328  -0.65148017   1.07825458 
C    0.01381773  -2.58044238   1.98477945 
C    1.22715480  -2.05893995   2.55237917 
C    1.54745783  -2.36739108   0.28143039 
C    0.23439736  -2.80918095   0.60917553 
C    2.15658110  -1.92195624   1.49671960 
N   -0.88398881   0.06897162  -0.38282951 
C   -2.32759189   0.19937520   0.00253795 
C   -2.78822147   1.65287782  -0.00696144 
H   -3.81195022   1.70214363   0.36383455 
H   -2.79004451   2.07714054  -1.01405041 
H   -2.17507948   2.27785235   0.64117716 
C   -3.23878073  -0.67668536  -0.85414858 
H   -2.39620792  -0.16260336   1.03110496 
H   -4.23938933  -0.67565935  -0.42270194 
H   -3.34533528  -0.31004212  -1.87686303 
H   -2.89739876  -1.71198501  -0.89200924 
C   -0.57858718   0.29908780  -1.60700973 
C    0.72397209   0.22559092  -2.23021641 
H   -1.39853618   0.53887755  -2.28616480 
C    2.00082842   0.39694827  -1.76897969 
C    2.98846515   0.15994196  -2.72807666 
S    0.75995054  -0.10517326  -3.92577458 
C    2.45435352  -0.10056752  -3.96070743 
H    2.24105688   0.77975587  -0.77370056 
H    4.04416513   0.21871069  -2.52927104 
H    2.99894696  -0.26971313  -4.87228476 
H   -0.86568601  -2.87016053   2.53798626 
H    1.39553736  -1.84913516   3.59387877 
H    3.15193380  -1.52012481   1.58247694 
O    1.37418076   1.30013879   1.03183673 
O   -0.30849860   0.92367308   2.26914035 
C    0.53753392   1.76455722   1.87055463 
C    0.53751847   3.17098734   2.38098306 
H    0.74133167   3.88812243   1.59020143 
H    1.31761487   3.30692154   3.13414358 
H   -0.41568577   3.42055107   2.85374853 
H    2.02458957  -2.46836938  -0.68022753 
H   -0.46998491  -3.26095388  -0.07292157 
*
