! EnGrad PBEh-3c
%output 
xyzfile=True 
end 
%scf 
maxiter 250 
end
%output
Print[P_Hirshfeld] = 1
end
% maxcore
4000
*xyz 1 1
Ir   0.45206127  -0.66142714   1.07531640 
C    0.00922163  -2.58377826   1.97265893 
C    1.21328172  -2.05524882   2.55554818 
C    1.56596676  -2.35984230   0.29256727 
C    0.25539716  -2.80338026   0.59799729 
C    2.15996065  -1.91988821   1.52631002 
N   -0.88050796   0.07140338  -0.37695818 
C   -2.32574752   0.19264200   0.00691891 
C   -2.78724225   1.64502031   0.00849212 
H   -3.81332043   1.69138617   0.37782864 
H   -2.79315971   2.07961883  -0.99240063 
H   -2.17821455   2.26461180   0.66336487 
C   -3.23948442  -0.67455371  -0.85990372 
H   -2.39551365  -0.18057218   1.02537670 
H   -4.24125207  -0.67662277  -0.42526838 
H   -3.35307221  -0.29675439  -1.87719284 
H   -2.90385546  -1.70984901  -0.91004364 
C   -0.57944609   0.30551448  -1.60373601 
C    0.71466463   0.24409642  -2.23667301 
H   -1.39616451   0.53599634  -2.28643036 
C    2.00158830   0.40816505  -1.74932723 
C    2.98473789   0.17091558  -2.73266292 
S    0.75297792  -0.11298402  -3.93124776 
C    2.45124977  -0.10855002  -3.95959500 
H    2.22425064   0.74778687  -0.77665030 
H    4.04779426   0.22170237  -2.52733987 
H    2.99156836  -0.27231811  -4.87721701 
H   -0.88785795  -2.86286884   2.50553159 
H    1.36018274  -1.83357187   3.60325018 
H    3.15537851  -1.51313523   1.62779854 
O    1.36179703   1.27670710   1.02850163 
O   -0.32055042   0.92356169   2.27538447 
C    0.53969185   1.75404809   1.85827693 
C    0.54986610   3.16858616   2.36315372 
H    0.74646463   3.89009745   1.57188545 
H    1.33275100   3.30295957   3.11222022 
H   -0.39382549   3.41629961   2.84157222 
H    2.06030275  -2.44568787  -0.66458518 
H   -0.44688537  -3.23792282  -0.10128655 
*
