! EnGrad PBEh-3c
%output 
xyzfile=True 
end 
%scf 
maxiter 250 
end
%output
Print[P_Hirshfeld] = 1
end
% maxcore
4000
*xyz 1 1
Ir   0.44649762  -0.66794308   1.07300559 
C    0.00410686  -2.58719910   1.96094617 
C    1.19899615  -2.05337356   2.56397094 
C    1.58670369  -2.34756579   0.30425061 
C    0.26829256  -2.79805830   0.58783532 
C    2.16330432  -1.91746313   1.54831491 
N   -0.87996628   0.07140255  -0.37537452 
C   -2.32455379   0.18735844   0.00677992 
C   -2.78871201   1.63692905   0.02393699 
H   -3.81382630   1.68134511   0.39144806 
H   -2.79353090   2.08148282  -0.97209098 
H   -2.18104083   2.25250246   0.68230685 
C   -3.24078054  -0.67128069  -0.86391948 
H   -2.39439594  -0.19680561   1.02205991 
H   -4.24081400  -0.67752765  -0.42736927 
H   -3.35856212  -0.28484067  -1.87755197 
H   -2.90885637  -1.70759017  -0.92671081 
C   -0.57626338   0.30923280  -1.60081969 
C    0.70776406   0.25722423  -2.24081790 
H   -1.39702240   0.53455531  -2.28486602 
C    1.99709428   0.40659795  -1.75379536 
C    2.98026830   0.18128834  -2.73516752 
S    0.74855294  -0.11748117  -3.93619634 
C    2.44884786  -0.11150274  -3.95370420 
H    2.21678770   0.72714584  -0.76255067 
H    4.04609430   0.22511454  -2.52856618 
H    2.98483001  -0.27746416  -4.88232843 
H   -0.90741324  -2.85611333   2.47584197 
H    1.32742945  -1.82015522   3.61069002 
H    3.15785766  -1.50708883   1.66941035 
O    1.35511830   1.26510037   1.02635418 
O   -0.32846310   0.91939771   2.27745617 
C    0.53505340   1.74508256   1.85434091 
C    0.56237000   3.16358831   2.34458259 
H    0.75242839   3.88933624   1.55309028 
H    1.34838440   3.29739947   3.09119709 
H   -0.37641172   3.41136429   2.83036499 
H    2.09192820  -2.42438559  -0.64802804 
H   -0.42425564  -3.21738111  -0.12714485 
*
