! EnGrad PBEh-3c
%output 
xyzfile=True 
end 
%scf 
maxiter 250 
end
%output
Print[P_Hirshfeld] = 1
end
% maxcore
4000
*xyz 0 1
Lu   0.23184379   0.36490402  -0.22124545 
C    0.44286635   0.98267630   2.44967981 
C    1.36356304  -0.02777018   2.22389907 
C    2.33243464   0.47540203   1.29675409 
C    1.95403661   1.79007471   0.95394784 
C    0.76599862   2.10247133   1.65132365 
H    2.50977320   2.45991692   0.32880639 
H    0.20867760   3.02390322   1.60287872 
H   -0.35938526   0.97277980   3.19873671 
H    1.40319193  -0.98637630   2.69299339 
H    3.19802555  -0.06715094   0.93394798 
C    1.03350790  -0.05671672  -2.57554767 
C   -0.26156323  -0.63478215  -2.62024805 
C    1.03646024  -1.97461550  -1.30999189 
C    1.84799039  -0.88344155  -1.77901424 
H    1.34098560   0.80737505  -3.12330841 
C   -0.22506605  -1.82622953  -1.87568432 
H   -1.12121521  -0.24924500  -3.15055073 
H    2.89708984  -0.74737676  -1.56260620 
H    1.37422044  -2.76840925  -0.67637229 
H   -1.03328049  -2.55513319  -1.85779347 
C   -2.47617605  -1.58722498   1.34994072 
H   -2.56226312  -1.45319471   2.47990897 
H   -2.93565390  -2.65675529   1.13441500 
H   -3.13997277  -0.86207803   0.84096724 
C   -1.85226343   1.70210117  -0.69696783 
H   -1.40593578  -1.31659515   0.92720948 
H   -1.45732017   2.52519932  -1.31077004 
H   -2.50801870   2.24797370   0.06042743 
H   -2.61195591   1.20181067  -1.36591414 
*
