! EnGrad PBEh-3c
%output 
xyzfile=True 
end 
%scf 
maxiter 250 
end
%output
Print[P_Hirshfeld] = 1
end
% maxcore
4000
*xyz 0 1
Lu   0.12105473   0.39266078  -0.22452630 
C    0.42264256   0.98335902   2.44185864 
C    1.37409521  -0.03476173   2.20336650 
C    2.33890922   0.48135930   1.32037369 
C    1.95174643   1.78558092   0.94098953 
C    0.79731908   2.11243849   1.68127150 
H    2.51779540   2.46651387   0.32580257 
H    0.21111976   3.02247378   1.60101329 
H   -0.34969278   0.96569687   3.18603351 
H    1.39513606  -0.99863229   2.68995700 
H    3.19744427  -0.06562516   0.93826592 
C    1.03169901  -0.05029202  -2.56537063 
C   -0.23779432  -0.65675757  -2.65963310 
C    1.05344909  -1.96674545  -1.31786092 
C    1.84502450  -0.89958600  -1.78443386 
H    1.34733147   0.81682319  -3.12980991 
C   -0.24751867  -1.81046338  -1.84292811 
H   -1.11656541  -0.24633707  -3.14799815 
H    2.89870433  -0.74892030  -1.56369101 
H    1.37346126  -2.77345834  -0.66987527 
H   -1.02496575  -2.55153872  -1.84250252 
C   -2.36826387  -1.56367818   1.30933999 
H   -2.53774870  -1.46102926   2.45200432 
H   -2.86316662  -2.63256136   1.13122432 
H   -3.18587125  -0.88488634   0.87748198 
C   -1.81914636   1.67981972  -0.68956090 
H   -1.60303827  -1.31489838   0.96211786 
H   -1.46031546   2.53091476  -1.31912037 
H   -2.48581988   2.22491172   0.05387776 
H   -2.59533374   1.20573034  -1.35889365 
*
