! EnGrad PBEh-3c
%output 
xyzfile=True 
end 
%scf 
maxiter 250 
end
%output
Print[P_Hirshfeld] = 1
end
% maxcore
4000
*xyz 0 1
Lu   0.11819719   0.39313005  -0.22166698 
C    0.41439039   0.99339528   2.44272888 
C    1.38406890  -0.03182492   2.19268605 
C    2.33479914   0.47232284   1.31601703 
C    1.95243451   1.78379359   0.94515828 
C    0.78992088   2.10803141   1.67942317 
H    2.51981076   2.46840103   0.32278421 
H    0.21364084   3.02294288   1.60306240 
H   -0.35024950   0.96361755   3.18160732 
H    1.39499228  -1.00262879   2.69105541 
H    3.19557924  -0.06325652   0.94007962 
C    1.02788955  -0.05685917  -2.56835610 
C   -0.24258915  -0.65187966  -2.65269081 
C    1.06356564  -1.95443171  -1.31685989 
C    1.84396059  -0.90374397  -1.77464298 
H    1.34937670   0.82025241  -3.13095326 
C   -0.25250588  -1.80758303  -1.85060912 
H   -1.11349155  -0.24795480  -3.14951541 
H    2.89674666  -0.74905919  -1.56424640 
H    1.37481202  -2.77563086  -0.66923313 
H   -1.02649298  -2.54935708  -1.83687216 
C   -2.51668688  -1.60683468   1.36687747 
H   -2.52393655  -1.45988125   2.42252952 
H   -2.83185111  -2.59801720   1.13070160 
H   -3.17332144  -0.89623698   0.88688446 
C   -1.83731399   1.68530482  -0.68995472 
H   -1.51470823  -1.29647283   0.92584411 
H   -1.45979565   2.52858996  -1.31860769 
H   -2.46925761   2.21297080   0.04577446 
H   -2.58173997   1.20922012  -1.35127935 
*
