! EnGrad PBEh-3c
%output 
xyzfile=True 
end 
%scf 
maxiter 250 
end
%output
Print[P_Hirshfeld] = 1
end
% maxcore
4000
*xyz 0 1
Lu   0.02638532   0.40791247  -0.21273408 
C    0.42121851   0.97547205   2.41888314 
C    1.36543012  -0.04070083   2.18737918 
C    2.33276315   0.47449980   1.30349888 
C    1.95468076   1.78407483   0.93759228 
C    0.79754890   2.11772419   1.68144030 
H    2.52420439   2.46815233   0.32091333 
H    0.22664120   3.02651636   1.61043345 
H   -0.36160265   0.94914830   3.16779425 
H    1.38892894  -1.00520054   2.67535690 
H    3.19997779  -0.06213255   0.94537613 
C    1.03491377  -0.05101852  -2.57213104 
C   -0.24204414  -0.65250785  -2.65920877 
C    1.05293218  -1.95551012  -1.30287813 
C    1.84434538  -0.89035051  -1.77147739 
H    1.35555841   0.81994701  -3.12810034 
C   -0.24457804  -1.78952540  -1.82625876 
H   -1.10487405  -0.24745196  -3.16032719 
H    2.89664960  -0.75072047  -1.56436213 
H    1.37669119  -2.77068837  -0.67144852 
H   -1.02894003  -2.53860443  -1.79878416 
C   -2.54088976  -1.57066658   1.35485472 
H   -2.47946775  -1.45762894   2.41924477 
H   -2.72659810  -2.60046920   1.10481371 
H   -3.25464048  -0.91983857   0.93136861 
C   -1.81335221   1.69023230  -0.70646739 
H   -1.60466287  -1.28797810   0.92230089 
H   -1.46092011   2.52052347  -1.31991014 
H   -2.42162860   2.17558333   0.04838198 
H   -2.54803057   1.20646883  -1.34393528 
*
