! EnGrad PBEh-3c
%output 
xyzfile=True 
end 
%scf 
maxiter 250 
end
%output
Print[P_Hirshfeld] = 1
end
% maxcore
4000
*xyz 0 1
Lu   0.12052565   0.33773185  -0.18513442 
C    0.40278250   0.96297365   2.39593615 
C    1.34706800  -0.05598618   2.15072035 
C    2.29794132   0.45189485   1.24030890 
C    1.94328073   1.77095414   0.93520054 
C    0.74561181   2.08691616   1.62404419 
H    2.51395836   2.45244966   0.31236740 
H    0.25461168   3.04476555   1.64442054 
H   -0.40367528   0.90865796   3.12350954 
H    1.38952598  -1.01379908   2.63619737 
H    3.20557128  -0.06169707   0.93684470 
C    1.02803233  -0.05933903  -2.55798224 
C   -0.27739369  -0.60344294  -2.58371756 
C    1.03716967  -1.91626103  -1.25059743 
C    1.82754767  -0.85156933  -1.73072084 
H    1.35897734   0.81487444  -3.11163887 
C   -0.24466785  -1.77999260  -1.81272948 
H   -1.09795511  -0.25860249  -3.19182785 
H    2.89384173  -0.73975186  -1.55569604 
H    1.39093011  -2.75450174  -0.66968262 
H   -1.05667372  -2.49230905  -1.69675673 
C   -2.56177714  -1.55649911   1.35147914 
H   -2.42058764  -1.44039715   2.42796398 
H   -2.58386849  -2.60271163   1.06008337 
H   -3.44832524  -0.99582993   0.99649076 
C   -1.78572998   1.70846220  -0.74335481 
H   -1.64320313  -1.19156492   0.86938002 
H   -1.41806866   2.55438730  -1.35056676 
H   -2.35458946   2.16390049   0.08716874 
H   -2.51609533   1.18950180  -1.38893719 
*
