! EnGrad PBEh-3c
%output 
xyzfile=True 
end 
%scf 
maxiter 250 
end
%output
Print[P_Hirshfeld] = 1
end
% maxcore
4000
*xyz 0 1
Lu   0.45729013   0.34208529  -0.22811589 
C    0.47781578   0.94437105   2.52449490 
C    1.37036895  -0.09739513   2.17464457 
C    2.32542930   0.43688651   1.27630079 
C    1.97412936   1.78934996   1.02456658 
C    0.72826990   2.02979955   1.65765392 
H    2.48116975   2.46041577   0.34599295 
H    0.18156913   2.96095962   1.66222430 
H   -0.27733925   0.90313776   3.29631998 
H    1.40791534  -1.07059208   2.64251075 
H    3.21233393  -0.06699082   0.92392232 
C    1.01220132  -0.11818004  -2.59091741 
C   -0.29292080  -0.66003883  -2.53904491 
C    1.03589502  -1.95453473  -1.22397387 
C    1.83331897  -0.90655828  -1.74731455 
H    1.28508496   0.80182233  -3.08840098 
C   -0.22228182  -1.89447296  -1.86618340 
H   -1.14021523  -0.32425662  -3.11708411 
H    2.88685878  -0.76727120  -1.55434413 
H    1.38493240  -2.78480285  -0.62638922 
H   -1.01625398  -2.62345693  -1.77562108 
C   -2.55093540  -1.74758953   1.45702682 
H   -2.37592300  -1.51075092   2.48628663 
H   -2.54007620  -2.77592591   1.11872339 
H   -3.41687332  -1.24330026   1.01474152 
C   -1.93709138   1.83568653  -0.78466552 
H   -1.81220981  -0.30444190   0.47861306 
H   -1.33049109   2.57112257  -1.32391516 
H   -2.55660041   2.41720320  -0.09978096 
H   -2.58538135   1.35772322  -1.51827207 
*
