! EnGrad PBEh-3c
%output 
xyzfile=True 
end 
%scf 
maxiter 250 
end
%output
Print[P_Hirshfeld] = 1
end
% maxcore
4000
*xyz 0 1
Lu  -0.00643307   0.22673809  -0.08455063 
C    0.43013326   0.83586325   2.46629927 
C    1.40239380  -0.14130499   2.17069490 
C    2.29950150   0.40708374   1.23741006 
C    1.85797406   1.71058118   0.92289886 
C    0.69067533   1.96718237   1.67732325 
H    2.37211374   2.41059717   0.28046148 
H    0.16178192   2.91287285   1.71848297 
H   -0.35967721   0.74023967   3.20466111 
H    1.51582725  -1.10377755   2.66016090 
H    3.21869938  -0.04790430   0.90054518 
C    0.93628513  -0.07185297  -2.45704796 
C   -0.33641381  -0.68222609  -2.47137906 
C    1.04868723  -1.97130403  -1.19653275 
C    1.79562329  -0.87892741  -1.67750241 
H    1.22942587   0.81531414  -2.99642992 
C   -0.26083473  -1.86055431  -1.71231099 
H   -1.19082860  -0.34210044  -3.04221114 
H    2.85533944  -0.73372186  -1.55525053 
H    1.45516576  -2.81311301  -0.64955319 
H   -1.06270886  -2.57330968  -1.55836580 
C   -2.43785791  -1.45233396   1.22833150 
H   -2.23301359  -1.27123733   2.29096555 
H   -1.91967807  -2.35002732   0.89823694 
H   -3.52065537  -1.47735161   1.02232599 
C   -1.78396694   1.80395933  -0.81521527 
H   -2.14756150  -0.47603514   0.64346824 
H   -1.13926748   2.53888281  -1.32533059 
H   -2.41910845   2.44603989  -0.18286787 
H   -2.45830377   1.46686244  -1.61831417 
*
