! EnGrad PBEh-3c
%output 
xyzfile=True 
end 
%scf 
maxiter 250 
end
%output
Print[P_Hirshfeld] = 1
end
% maxcore
4000
*xyz 0 1
Lu   0.30889603   0.34761704  -0.21851682 
C    0.47219317   0.92420056   2.47932393 
C    1.37973387  -0.07230861   2.19822719 
C    2.34483892   0.45262034   1.29087157 
C    1.96192881   1.77111801   1.00659115 
C    0.76115346   2.05208580   1.70096912 
H    2.48906078   2.46669368   0.34964339 
H    0.18372477   2.96350764   1.65906752 
H   -0.28779653   0.90111302   3.28237227 
H    1.40880902  -1.06886494   2.63936004 
H    3.21453896  -0.06755721   0.92467098 
C    1.01529946  -0.11355934  -2.57136284 
C   -0.28207865  -0.68587693  -2.58132908 
C    1.04182385  -1.97569147  -1.26002277 
C    1.84619212  -0.90598787  -1.76236290 
H    1.29234168   0.79954081  -3.09920581 
C   -0.21862062  -1.86082483  -1.82739097 
H   -1.13956918  -0.31702439  -3.11453089 
H    2.88995278  -0.76610948  -1.55791364 
H    1.38763437  -2.78022405  -0.62558240 
H   -1.01624193  -2.61566756  -1.77424841 
C   -2.57164917  -1.63085607   1.36257944 
H   -2.37419299  -1.51107175   2.49808366 
H   -2.52403028  -2.76900961   1.11748483 
H   -3.41657986  -1.24128283   1.04089742 
C   -1.89503794   1.80386034  -0.77476937 
H   -1.81293824  -0.41361886   0.53640135 
H   -1.33310381   2.57153302  -1.32884373 
H   -2.54838225   2.39485964  -0.08143589 
H   -2.58357967   1.34458143  -1.50861391 
*
