! EnGrad PBEh-3c
%output 
xyzfile=True 
end 
%scf 
maxiter 250 
end
%output
Print[P_Hirshfeld] = 1
end
% maxcore
4000
*xyz 0 1
Lu   0.09986451   0.34633966  -0.19462588 
C    0.42212661   0.91599678   2.45556338 
C    1.42288007  -0.07626392   2.21243312 
C    2.35764224   0.45789241   1.31330140 
C    1.94870729   1.76730489   0.96886653 
C    0.80233154   2.07594746   1.74349599 
H    2.48951137   2.46596799   0.35575710 
H    0.18759138   2.96421197   1.66035645 
H   -0.29113012   0.88915279   3.24539424 
H    1.41276845  -1.06063246   2.63437286 
H    3.22005772  -0.06727785   0.92547970 
C    1.01200956  -0.09255148  -2.55580244 
C   -0.25956629  -0.70773398  -2.62451102 
C    1.07898339  -1.99138580  -1.29490942 
C    1.84739433  -0.91836453  -1.76801268 
H    1.29732837   0.79163268  -3.10364125 
C   -0.25057265  -1.83915099  -1.77943304 
H   -1.14230674  -0.31020916  -3.11140515 
H    2.89897204  -0.76271786  -1.56242704 
H    1.39264203  -2.77707303  -0.62698063 
H   -1.00872954  -2.59187920  -1.75858497 
C   -2.44892654  -1.53354136   1.29985135 
H   -2.37471080  -1.50454242   2.44890614 
H   -2.47609458  -2.70127021   1.11221310 
H   -3.52080810  -1.20903823   1.03955993 
C   -1.84404916   1.76865149  -0.76046191 
H   -1.86996901  -0.58150520   0.63792195 
H   -1.32897574   2.57422407  -1.33817437 
H   -2.52065836   2.36330672  -0.07550656 
H   -2.56870622   1.34041880  -1.49884259 
*
