! EnGrad PBEh-3c
%output 
xyzfile=True 
end 
%scf 
maxiter 250 
end
%output
Print[P_Hirshfeld] = 1
end
% maxcore
4000
*xyz 0 1
Lu   0.07285601   0.33563942  -0.18127782 
C    0.43004043   0.91099998   2.45087785 
C    1.42121855  -0.07441531   2.20913542 
C    2.35455000   0.45200271   1.31035503 
C    1.94120751   1.76425242   0.96598030 
C    0.79472798   2.06789892   1.73991874 
H    2.48296026   2.46296009   0.35010498 
H    0.18832932   2.96081416   1.66514375 
H   -0.29823314   0.87831580   3.24247330 
H    1.41975796  -1.06624030   2.63681556 
H    3.22152895  -0.06544284   0.92568316 
C    1.00552792  -0.09116427  -2.55097962 
C   -0.26460977  -0.70528733  -2.61310610 
C    1.07638713  -1.98976288  -1.29099570 
C    1.84540553  -0.91837787  -1.76134740 
H    1.29376694   0.79325685  -3.09646529 
C   -0.24582427  -1.83608923  -1.77574914 
H   -1.14346001  -0.31316425  -3.10806604 
H    2.89716561  -0.76181018  -1.56340847 
H    1.39818493  -2.78099763  -0.62824263 
H   -1.01489376  -2.58949900  -1.74176173 
C   -2.44820975  -1.50426643   1.28040657 
H   -2.36277677  -1.49251502   2.41462384 
H   -2.43311927  -2.66306836   1.10370488 
H   -3.50157812  -1.23749559   1.04839384 
C   -1.84365753   1.77528497  -0.76481764 
H   -1.92011242  -0.60845138   0.66562646 
H   -1.31855842   2.57306742  -1.33875289 
H   -2.50733546   2.36654875  -0.09058881 
H   -2.55673420   1.35434571  -1.50480519 
*
