! EnGrad PBEh-3c
%output 
xyzfile=True 
end 
%scf 
maxiter 250 
end
%output
Print[P_Hirshfeld] = 1
end
% maxcore
4000
*xyz 0 1
Lu   0.08722559   0.33029902  -0.17644817 
C    0.43212290   0.91389599   2.46066562 
C    1.41891716  -0.08329278   2.20249038 
C    2.34841263   0.44660004   1.30347989 
C    1.93997276   1.76610336   0.96834510 
C    0.78363037   2.05947858   1.72589665 
H    2.47817759   2.45981117   0.34648461 
H    0.18913044   2.95906930   1.66895433 
H   -0.30017402   0.87225889   3.24106739 
H    1.42333452  -1.06804465   2.63803860 
H    3.22203841  -0.06466370   0.92567968 
C    1.00191309  -0.09201454  -2.55202843 
C   -0.26987780  -0.69638664  -2.59747225 
C    1.07457544  -1.98470118  -1.27883655 
C    1.84111701  -0.91673428  -1.75465397 
H    1.29109235   0.79438899  -3.09081600 
C   -0.24619736  -1.84318738  -1.78262509 
H   -1.14390790  -0.31608119  -3.10725740 
H    2.89576158  -0.76151278  -1.56313451 
H    1.40058341  -2.78340454  -0.62945674 
H   -1.01787718  -2.58790714  -1.73142199 
C   -2.44079233  -1.52433781   1.29897594 
H   -2.35509595  -1.48225279   2.38788275 
H   -2.40807170  -2.63270336   1.09514284 
H   -3.50366056  -1.24785159   1.04519825 
C   -1.84974239   1.78479331  -0.76983105 
H   -1.94556966  -0.60778051   0.67119959 
H   -1.31229226   2.57130137  -1.33768888 
H   -2.50006566   2.37036683  -0.10084613 
H   -2.54967897   1.36356521  -1.50932796 
*
