! EnGrad PBEh-3c
%output 
xyzfile=True 
end 
%scf 
maxiter 250 
end
%output
Print[P_Hirshfeld] = 1
end
% maxcore
4000
*xyz 0 1
Lu   0.05547619   0.32265861  -0.16554322 
C    0.43652820   0.90682035   2.45493122 
C    1.41658877  -0.08315714   2.20325170 
C    2.34756017   0.44629385   1.29900237 
C    1.93320914   1.75903057   0.96482205 
C    0.77980001   2.05545738   1.72488181 
H    2.47318932   2.45787105   0.34185652 
H    0.18939867   2.95690279   1.67284968 
H   -0.30711357   0.86269737   3.23692214 
H    1.42956156  -1.07138243   2.63938554 
H    3.22337837  -0.06354435   0.92549251 
C    0.99865435  -0.09207031  -2.54348188 
C   -0.27463281  -0.69595551  -2.59177776 
C    1.07139148  -1.98664111  -1.27638683 
C    1.84047016  -0.91264820  -1.75171417 
H    1.28876792   0.79611216  -3.08609019 
C   -0.24282755  -1.83950193  -1.77562563 
H   -1.14532577  -0.31773108  -3.10394872 
H    2.89389277  -0.76054917  -1.56396678 
H    1.40536425  -2.78578559  -0.63078180 
H   -1.02273730  -2.58499328  -1.71698684 
C   -2.44356271  -1.50122731   1.27803227 
H   -2.34363462  -1.46868638   2.36921193 
H   -2.36840784  -2.60048661   1.08371568 
H   -3.49745156  -1.26528538   1.04988368 
C   -1.84057507   1.78576385  -0.77399765 
H   -1.97762208  -0.63421466   0.69361581 
H   -1.30289247   2.56951255  -1.33794719 
H   -2.49112951   2.37303909  -0.10790376 
H   -2.54138997   1.37232282  -1.51529975 
*
