! EnGrad PBEh-3c
%output 
xyzfile=True 
end 
%scf 
maxiter 250 
end
%output
Print[P_Hirshfeld] = 1
end
% maxcore
4000
*xyz 0 1
Lu  -0.02270739   0.27597794  -0.11497512 
C    0.44717407   0.87506107   2.45445359 
C    1.40478289  -0.10559294   2.18944937 
C    2.32676999   0.43082404   1.26520763 
C    1.89986960   1.73141311   0.94679495 
C    0.73679078   2.01374041   1.69561200 
H    2.43183714   2.43809452   0.31265742 
H    0.18391497   2.94257162   1.69745990 
H   -0.34031107   0.80354544   3.21596226 
H    1.47005519  -1.08828452   2.64949051 
H    3.22625036  -0.05558945   0.91940451 
C    0.97422821  -0.08623365  -2.50129731 
C   -0.30606242  -0.68327377  -2.53198712 
C    1.05572749  -1.98145104  -1.23841170 
C    1.82381722  -0.89153213  -1.71973308 
H    1.26694519   0.80532710  -3.04786943 
C   -0.23999343  -1.84372322  -1.75027064 
H   -1.16146198  -0.32927467  -3.08180667 
H    2.87799227  -0.75139132  -1.56448224 
H    1.43216112  -2.80074534  -0.64077053 
H   -1.04777145  -2.57240812  -1.63206167 
C   -2.47197492  -1.48738119   1.26252247 
H   -2.27752931  -1.36971917   2.29882652 
H   -2.13322269  -2.45093432   0.98938456 
H   -3.50948901  -1.36604190   1.04976442 
C   -1.80438997   1.79718736  -0.79873789 
H   -2.08133128  -0.62234208   0.71014078 
H   -1.23173926   2.56030957  -1.33811163 
H   -2.44870195   2.40444373  -0.14638420 
H   -2.49761400   1.42222763  -1.56288773 
*
