! EnGrad PBEh-3c
%output 
xyzfile=True 
end 
%scf 
maxiter 250 
end
%output
Print[P_Hirshfeld] = 1
end
% maxcore
4000
*xyz 0 1
Lu  -0.03060199   0.25244899  -0.09605563 
C    0.44120234   0.85941269   2.46198807 
C    1.40421835  -0.12389118   2.17916927 
C    2.31386442   0.42000779   1.24999768 
C    1.88294888   1.72065495   0.93620774 
C    0.71299112   1.99435795   1.68131032 
H    2.40702812   2.42630921   0.29782337 
H    0.17793481   2.93107645   1.70886102 
H   -0.35189423   0.77409363   3.20765100 
H    1.49080710  -1.09532845   2.65455724 
H    3.22507116  -0.05163972   0.91342022 
C    0.95972374  -0.08082146  -2.48072952 
C   -0.32175052  -0.67735381  -2.50237128 
C    1.05315785  -1.97560890  -1.21712311 
C    1.81001788  -0.88420122  -1.70084047 
H    1.25241341   0.80989761  -3.02589172 
C   -0.24803961  -1.85239869  -1.73563898 
H   -1.17211821  -0.33563101  -3.06693074 
H    2.86968789  -0.74476337  -1.56224166 
H    1.44399248  -2.80762851  -0.64559899 
H   -1.05675204  -2.56908511  -1.59376357 
C   -2.46301756  -1.46547983   1.24953827 
H   -2.24973461  -1.32135514   2.29457724 
H   -2.01993478  -2.41054877   0.93930673 
H   -3.53222390  -1.41682464   1.03999219 
C   -1.79254205   1.80231936  -0.80811241 
H   -2.11934804  -0.57748889   0.69378402 
H   -1.19097607   2.55466560  -1.33626568 
H   -2.43152246   2.42313121  -0.16462443 
H   -2.47804101   1.44502187  -1.58897171 
*
