! EnGrad PBEh-3c
%output 
xyzfile=True 
end 
%scf 
maxiter 250 
end
%output
Print[P_Hirshfeld] = 1
end
% maxcore
4000
*xyz 1 1
Ir   0.49068482  -0.72847490   0.81073326 
C   -0.07213438  -2.78523911   1.49842126 
C    0.59523738  -2.10825699   2.52977685 
C    1.98954843  -2.24775229   0.73947350 
C    0.77171807  -2.86057491   0.36485283 
C    1.91238526  -1.79435540   2.07935999 
N   -1.02035112  -0.03378162  -0.45149384 
C   -2.45666250   0.01137439   0.02840888 
C   -2.87799977   1.39691983   0.47456664 
H   -3.91749612   1.37327464   0.81924539 
H   -2.81282951   2.11791282  -0.33696326 
H   -2.30881304   1.73638192   1.31955686 
C   -3.43470936  -0.54456484  -1.00390951 
H   -2.47536014  -0.63157166   0.88084566 
H   -4.41820107  -0.65478011  -0.51173891 
H   -3.59871894   0.12172266  -1.84554887 
H   -3.14970764  -1.51826462  -1.36321238 
C   -0.76178315   0.27340952  -1.68083860 
C    0.53430786   0.20268895  -2.29178342 
H   -1.56864091   0.54291352  -2.31662639 
C    1.80758941   0.09801568  -1.57659054 
C    2.82831394  -0.05368494  -2.57799441 
S    0.73230809   0.16653208  -4.00458224 
C    2.42736456  -0.00928715  -3.86820201 
H    2.18362214   1.04424426  -0.81319013 
H    3.87934896  -0.06130661  -2.30064484 
H    3.04948192  -0.10535603  -4.74338073 
H   -0.93909185  -3.42796044   1.64171906 
H    0.22382845  -1.99304780   3.56136073 
H    2.70401092  -1.41531622   2.65818436 
O    1.81824010   1.88357446   0.62732859 
O    0.11625338   1.04954027   1.81094267 
C    1.01059114   2.05375421   1.37429783 
C    0.79300502   3.42217841   2.08331900 
H    0.84496776   4.18080184   1.30247074 
H    1.66998423   3.58724513   2.72505610 
H   -0.09216678   3.52247157   2.66116534 
H    2.93432982  -2.34676402   0.19305722 
H    0.58745580  -3.46571936  -0.49820892 
*
