! EnGrad PBEh-3c
%output 
xyzfile=True 
end 
%scf 
maxiter 250 
end
%output
Print[P_Hirshfeld] = 1
end
% maxcore
4000
*xyz 1 1
Ir   0.48857355  -0.72864671   0.81638680 
C   -0.07467390  -2.79087045   1.49265091 
C    0.59987860  -2.10410517   2.53695832 
C    1.99834991  -2.25508079   0.73964348 
C    0.77397977  -2.86288684   0.36667718 
C    1.90459007  -1.79595917   2.07923265 
N   -1.02152096  -0.03485381  -0.45676891 
C   -2.45577946   0.01366212   0.02436339 
C   -2.87987982   1.39717650   0.47599843 
H   -3.91678455   1.37158945   0.81793328 
H   -2.81238822   2.11870391  -0.33605986 
H   -2.30495499   1.73695405   1.32197061 
C   -3.43794269  -0.54319259  -1.00075335 
H   -2.47497077  -0.63594551   0.88452517 
H   -4.41509837  -0.65416680  -0.51309500 
H   -3.59878245   0.12304273  -1.84621994 
H   -3.14903684  -1.52075652  -1.36557857 
C   -0.76038968   0.27183100  -1.67709439 
C    0.54705445   0.20070859  -2.28194047 
H   -1.57459243   0.54504960  -2.32013645 
C    1.80772524   0.12704496  -1.57898342 
C    2.83096547  -0.05532122  -2.57036214 
S    0.73133370   0.16419634  -4.00156590 
C    2.42377577  -0.01140476  -3.87000928 
H    2.16834761   1.01715333  -0.82069967 
H    3.87774039  -0.06262165  -2.30069595 
H    3.04906222  -0.10405802  -4.74391164 
H   -0.94259390  -3.42132083   1.63800370 
H    0.22273570  -1.99068603   3.55508757 
H    2.70794364  -1.41014381   2.66369546 
O    1.87326972   1.87725001   0.57867243 
O    0.12923160   1.05684217   1.80127417 
C    0.94817052   2.05715289   1.43200360 
C    0.80140423   3.41622426   2.07670884 
H    0.84406785   4.18182817   1.30287402 
H    1.66844724   3.58709498   2.72386470 
H   -0.09717009   3.52212412   2.66353823 
H    2.93110276  -2.34025693   0.19314082 
H    0.58868555  -3.46454093  -0.50222533 
*
