! EnGrad PBEh-3c
%output 
xyzfile=True 
end 
%scf 
maxiter 250 
end
%output
Print[P_Hirshfeld] = 1
end
% maxcore
4000
*xyz 1 1
Ir   0.48825529  -0.72959468   0.82184205 
C   -0.07479880  -2.79479634   1.48851461 
C    0.60125644  -2.10243617   2.53946504 
C    2.00548781  -2.26426283   0.74387152 
C    0.77833717  -2.86599951   0.36747120 
C    1.90134151  -1.79569667   2.08176628 
N   -1.02408820  -0.03724992  -0.46044112 
C   -2.45562853   0.01449474   0.02226889 
C   -2.88048071   1.39767499   0.47858300 
H   -3.91638794   1.36877605   0.81695444 
H   -2.81174202   2.11972200  -0.33371335 
H   -2.30031505   1.73665495   1.32528958 
C   -3.44031771  -0.54221048  -0.99927099 
H   -2.47440876  -0.64094031   0.88708723 
H   -4.41251167  -0.65326508  -0.51410179 
H   -3.59920934   0.12505162  -1.84650020 
H   -3.14898225  -1.52234818  -1.36869085 
C   -0.75838015   0.27148206  -1.67772919 
C    0.55895804   0.19861417  -2.27064422 
H   -1.58041452   0.54703797  -2.32337356 
C    1.81090987   0.16162802  -1.58216154 
C    2.83132289  -0.05721598  -2.56505348 
S    0.72971755   0.16122988  -3.99772980 
C    2.42065414  -0.01447327  -3.86894974 
H    2.14717775   0.98407663  -0.82637412 
H    3.87665654  -0.06480854  -2.29962831 
H    3.04833452  -0.10217145  -4.74437180 
H   -0.94851259  -3.41354019   1.63162277 
H    0.21927915  -1.98707195   3.54865890 
H    2.70902047  -1.40422587   2.66996375 
O    1.87383474   1.88401141   0.58118987 
O    0.14091858   1.06769716   1.79340836 
C    0.94721420   2.04273290   1.43138979 
C    0.80431032   3.41178334   2.07367399 
H    0.84341557   4.18231717   1.30239319 
H    1.66768438   3.58660264   2.72183532 
H   -0.09992374   3.52249384   2.66470350 
H    2.92994613  -2.33081851   0.19310850 
H    0.59186900  -3.46228662  -0.50746626 
*
