! EnGrad PBEh-3c
%output 
xyzfile=True 
end 
%scf 
maxiter 250 
end
%output
Print[P_Hirshfeld] = 1
end
% maxcore
4000
*xyz 1 1
Ir   0.48388557  -0.73601071   0.84119388 
C   -0.07022548  -2.80162682   1.47939043 
C    0.60020486  -2.10144845   2.53761210 
C    2.02067019  -2.29037740   0.76257424 
C    0.79527799  -2.87871074   0.36800056 
C    1.90207455  -1.79270599   2.09399297 
N   -1.03168857  -0.04529659  -0.46905719 
C   -2.45433929   0.01235334   0.02042071 
C   -2.87822567   1.39887413   0.48759980 
H   -3.91634832   1.35924169   0.81495055 
H   -2.80948234   2.12320957  -0.32435445 
H   -2.28610248   1.73466944   1.33526349 
C   -3.44375658  -0.54062253  -0.99953957 
H   -2.47258443  -0.65461515   0.89087095 
H   -4.40777670  -0.65058541  -0.51568968 
H   -3.60092781   0.13142449  -1.84623280 
H   -3.15010036  -1.52401959  -1.37823044 
C   -0.75257053   0.27175266  -1.68281144 
C    0.58415141   0.19932568  -2.23760407 
H   -1.59337224   0.55201154  -2.33202510 
C    1.82065757   0.25648569  -1.61020642 
C    2.83105425  -0.05616670  -2.55528068 
S    0.72551426   0.14871539  -3.97936406 
C    2.41444233  -0.02747426  -3.85952292 
H    2.08113866   0.88349488  -0.83343381 
H    3.87545954  -0.07245627  -2.29514286 
H    3.04420204  -0.09643249  -4.74365103 
H   -0.97116512  -3.38734046   1.60818288 
H    0.20486081  -1.97335060   3.53130282 
H    2.70663641  -1.38579282   2.68845318 
O    1.87961183   1.89815244   0.58541312 
O    0.16974377   1.08356096   1.77021779 
C    0.95235588   2.02845347   1.43163149 
C    0.80653109   3.39446224   2.06547163 
H    0.84124152   4.18163961   1.30072396 
H    1.66627229   3.58447647   2.71511589 
H   -0.10367423   3.52270256   2.66496692 
H    2.93184044  -2.29877192   0.19108848 
H    0.60425563  -3.45300067  -0.52451625 
*
