! EnGrad PBEh-3c
%output 
xyzfile=True 
end 
%scf 
maxiter 250 
end
%output
Print[P_Hirshfeld] = 1
end
% maxcore
4000
*xyz 1 1
Ir   0.44932603  -0.77748062   0.89152261 
C   -0.06328305  -2.80646931   1.45799540 
C    0.59392539  -2.10346653   2.52720194 
C    2.05408637  -2.30905570   0.79782782 
C    0.83946305  -2.91948283   0.37749116 
C    1.92096721  -1.79928586   2.12632796 
N   -1.03236077  -0.06739122  -0.46261706 
C   -2.44346910  -0.00540226   0.02151858 
C   -2.85865982   1.38801310   0.50542154 
H   -3.90908986   1.33904987   0.81435568 
H   -2.80052499   2.13044229  -0.29465729 
H   -2.25886496   1.72884675   1.34975718 
C   -3.43985508  -0.53949561  -1.00785032 
H   -2.46870126  -0.67533789   0.88227808 
H   -4.40816040  -0.64752367  -0.51583318 
H   -3.60330724   0.14440711  -1.84212640 
H   -3.15547919  -1.51582004  -1.39925751 
C   -0.76608640   0.27997441  -1.67296829 
C    0.55648557   0.24891921  -2.25661672 
H   -1.57857872   0.55437142  -2.34029067 
C    1.81374876   0.33038391  -1.71082552 
C    2.86394251   0.00240984  -2.58511904 
S    0.71511608   0.08779174  -3.94577200 
C    2.40392473  -0.07335084  -3.85977340 
H    1.97067587   0.72067836  -0.70341045 
H    3.89230088  -0.08640385  -2.27842357 
H    3.01791353  -0.09664440  -4.73240341 
H   -1.03233433  -3.29315435   1.53606977 
H    0.15904247  -1.92537443   3.49964576 
H    2.68905274  -1.33693937   2.72642458 
O    1.90017495   1.91621245   0.61105021 
O    0.20859201   1.05864966   1.73611523 
C    1.00016195   2.04785246   1.40117981 
C    0.79489696   3.38786319   2.06523865 
H    0.83232646   4.15903991   1.30240318 
H    1.65943010   3.57351950   2.69901570 
H   -0.10010281   3.50717669   2.65365002 
H    2.94104751  -2.21307494   0.18222885 
H    0.64283090  -3.41668345  -0.56499030 
*
