! EnGrad PBEh-3c
%output 
xyzfile=True 
end 
%scf 
maxiter 250 
end
%output
Print[P_Hirshfeld] = 1
end
% maxcore
4000
*xyz 1 1
Ir   0.44078156  -0.79361316   0.89895141 
C   -0.06233728  -2.80687278   1.45050791 
C    0.58954518  -2.10661265   2.52704136 
C    2.06012015  -2.29732015   0.80374172 
C    0.85392817  -2.92929080   0.38236683 
C    1.92251866  -1.80601475   2.13645251 
N   -1.02833601  -0.07378467  -0.45820821 
C   -2.44204679  -0.01112076   0.02380770 
C   -2.85111083   1.38027298   0.50990043 
H   -3.90108339   1.33306592   0.81744063 
H   -2.79541955   2.13009698  -0.28200331 
H   -2.25352296   1.72342852   1.35253071 
C   -3.43927774  -0.53805544  -1.00933569 
H   -2.46882131  -0.68120355   0.87632662 
H   -4.40859890  -0.64735453  -0.51652818 
H   -3.60333861   0.14919807  -1.83970723 
H   -3.15800540  -1.51081989  -1.40686355 
C   -0.76593131   0.28060025  -1.66539834 
C    0.54753740   0.27339949  -2.27457165 
H   -1.57211100   0.55424835  -2.33920310 
C    1.80738186   0.32803815  -1.68939570 
C    2.86264165   0.03395243  -2.59058636 
S    0.70722651   0.06226917  -3.96547865 
C    2.39788538  -0.08414207  -3.86495412 
H    1.94388216   0.67167713  -0.66720364 
H    3.90273744  -0.08680063  -2.27360926 
H    3.01045027  -0.10485903  -4.73950544 
H   -1.04922123  -3.25739424   1.50716520 
H    0.14035704  -1.90807781   3.49138122 
H    2.67788898  -1.32101271   2.73730041 
O    1.92307323   1.92464295   0.61196836 
O    0.21862401   1.04698345   1.72945171 
C    1.00887801   2.04910273   1.39377670 
C    0.79288821   3.38600334   2.06416351 
H    0.82816861   4.15401813   1.29931694 
H    1.65956917   3.57068045   2.69691282 
H   -0.10262857   3.49780843   2.65104198 
H    2.94532426  -2.18528634   0.18372936 
H    0.66167870  -3.40160307  -0.57398259 
*
