! EnGrad PBEh-3c
%output 
xyzfile=True 
end 
%scf 
maxiter 250 
end
%output
Print[P_Hirshfeld] = 1
end
% maxcore
4000
*xyz 0 1
C   -1.65646920   0.19569256  -0.38379595 
C   -1.88676100  -0.80656494  -1.31736269 
C   -1.41703248  -2.08818477  -1.08541188 
C   -0.61202799  -2.35064798   0.01041803 
C   -0.97617575  -0.14697747   0.76996746 
C   -0.36907053  -1.37147782   0.96218331 
H   -2.12261539   1.14522529  -0.61304784 
H   -2.52208966  -0.62215170  -2.17193802 
H   -1.69232516  -2.88783658  -1.76195798 
H    0.26451423  -1.63499323   1.79837581 
H   -0.24556621  -3.35510969   0.16974310 
Pd   1.41540621   1.14374769  -0.04122960 
O    2.96752924   1.10578572  -1.45312631 
O    2.64222083  -0.50145103  -0.05079048 
O    0.35924485   2.87954315   0.06116885 
C    0.07319353   3.00136718   1.25702320 
O    0.53519854   2.17087743   2.11059826 
H   -1.44268143   1.02022643   2.69197506 
C    3.23921925  -0.05242275  -1.06496499 
H    4.07199230  -0.61996223  -1.48641457 
H   -0.62569958   3.77530474   1.59859640 
*
