! EnGrad PBEh-3c
%output 
xyzfile=True 
end 
%scf 
maxiter 250 
end
%output
Print[P_Hirshfeld] = 1
end
% maxcore
4000
*xyz 0 1
C   -1.59171365   0.20956444  -0.38500364 
C   -2.04003765  -0.83924296  -1.20458992 
C   -1.68324973  -2.15891468  -0.94764259 
C   -0.77628264  -2.37893675   0.07449610 
C   -0.80840892   0.02781273   0.81989525 
C   -0.34658027  -1.33034603   0.90107426 
H   -1.86801109   1.21379072  -0.68042512 
H   -2.68888704  -0.64591580  -2.04796840 
H   -2.07301566  -2.98704318  -1.54485117 
H    0.37423142  -1.56811926   1.66883981 
H   -0.43290895  -3.38573972   0.25544855 
Pd   1.30528315   1.00767438  -0.00402887 
O    3.18499581   1.32764676  -1.24624030 
O    2.55173142  -0.51601129  -0.23754708 
O    0.36968351   2.71898955   0.12714347 
C    0.03326396   2.91417619   1.35171766 
O    0.32927561   2.18788659   2.30415244 
H   -0.80155183   0.68038125   1.64406838 
C    3.36059118   0.12261554  -0.99457677 
H    4.24507699  -0.41518165  -1.35622175 
H   -0.65202566   3.79252759   1.48376044 
*
