! EnGrad PBEh-3c
%output 
xyzfile=True 
end 
%scf 
maxiter 250 
end
%output
Print[P_Hirshfeld] = 1
end
% maxcore
4000
*xyz 0 1
C   -1.56854826   0.21843997  -0.39162586 
C   -2.06704363  -0.83785601  -1.17696354 
C   -1.73984352  -2.16089897  -0.90696406 
C   -0.80817032  -2.37736210   0.09267286 
C   -0.76487429  -0.01252686   0.73197384 
C   -0.33414100  -1.32572851   0.89280227 
H   -1.82172701   1.22882516  -0.69723558 
H   -2.72278021  -0.64477943  -2.01438085 
H   -2.14731198  -2.98871482  -1.48536844 
H    0.40294224  -1.56057292   1.64937532 
H   -0.47257248  -3.38577353   0.27927021 
Pd   1.28007653   0.96997772  -0.03642176 
O    3.21816878   1.36946430  -1.17120635 
O    2.54544936  -0.53652747  -0.29220707 
O    0.35866305   2.67758947   0.15365976 
C    0.00726714   2.90458129   1.38097424 
O    0.26542503   2.20020831   2.36284112 
H   -0.64380812   0.64302936   1.44236005 
C    3.38018703   0.15392523  -0.97448354 
H    4.27830480  -0.37075408  -1.32483603 
H   -0.65731721   3.80607357   1.46391646 
*
