! EnGrad PBEh-3c
%output 
xyzfile=True 
end 
%scf 
maxiter 250 
end
%output
Print[P_Hirshfeld] = 1
end
% maxcore
4000
*xyz 0 1
C   -1.61006012   0.21367540  -0.45208592 
C   -2.08634164  -0.82669928  -1.17489207 
C   -1.74910235  -2.13793511  -0.87698837 
C   -0.81261052  -2.38853591   0.11718164 
C   -0.75888291  -0.10680745   0.60747181 
C   -0.32440729  -1.39857808   0.89242910 
H   -1.81465110   1.23779113  -0.68674303 
H   -2.73608178  -0.62894687  -1.99590576 
H   -2.17832411  -2.97034920  -1.44497980 
H    0.40523578  -1.55689714   1.66021761 
H   -0.48134191  -3.38397672   0.29535124 
Pd   1.29487119   0.98833603  -0.05877261 
O    3.20217559   1.37294557  -1.12812662 
O    2.54534188  -0.54048118  -0.33650318 
O    0.34520748   2.66100687   0.17110938 
C   -0.00374674   2.90854840   1.38971510 
O    0.28482176   2.24632082   2.35565014 
H   -0.60461842   0.66697389   1.44570842 
C    3.41156979   0.15808640  -0.94423004 
H    4.30007283  -0.34990306  -1.32169514 
H   -0.64327159   3.80064141   1.46039298 
*
