! EnGrad PBEh-3c
%output 
xyzfile=True 
end 
%scf 
maxiter 250 
end
%output
Print[P_Hirshfeld] = 1
end
% maxcore
4000
*xyz 0 1
C   -1.66838765   0.19641867  -0.39897006 
C   -1.90064362  -0.83149284  -1.31124284 
C   -1.43739506  -2.10072222  -1.08691640 
C   -0.63316933  -2.36809852   0.00505948 
C   -0.96597674  -0.08490464   0.83012129 
C   -0.36376935  -1.37721048   0.95482964 
H   -2.09536859   1.15545115  -0.60865608 
H   -2.53846665  -0.62119670  -2.16851660 
H   -1.72424878  -2.89696676  -1.74350467 
H    0.27047127  -1.62274942   1.79058512 
H   -0.25755166  -3.36327967   0.17563758 
Pd   1.39624899   1.14758783   0.02732653 
O    2.97961403   1.11803012  -1.46620517 
O    2.60190073  -0.49160468  -0.07441937 
O    0.38456036   2.87063038  -0.05254627 
C    0.10575647   2.89962025   1.42064792 
O    0.49413603   2.23414975   2.04863498 
H   -1.39491320   0.97991029   2.59702201 
C    3.28781064  -0.01779527  -1.03345811 
H    4.08959150  -0.61153248  -1.49449865 
H   -0.62941912   3.78307935   1.58405351 
*
