! EnGrad PBEh-3c
%output 
xyzfile=True 
end 
%scf 
maxiter 250 
end
%output
Print[P_Hirshfeld] = 1
end
% maxcore
4000
*xyz 0 1
C   -1.66124147   0.19101411  -0.38015373 
C   -1.91715872  -0.83188448  -1.30465720 
C   -1.45546206  -2.11464676  -1.07919229 
C   -0.64677711  -2.36907394   0.01151668 
C   -0.96129800  -0.06161864   0.84777662 
C   -0.37197253  -1.35981418   0.94926646 
H   -2.07413333   1.16680465  -0.61168839 
H   -2.55169071  -0.62350745  -2.16170013 
H   -1.75743320  -2.91176985  -1.73131637 
H    0.27787728  -1.61611527   1.78211005 
H   -0.26978363  -3.37210095   0.18092229 
Pd   1.38182264   1.15099062   0.04874048 
O    2.99893463   1.13078165  -1.46253083 
O    2.58672434  -0.48702666  -0.09175686 
O    0.38484637   2.85244444   0.00042268 
C    0.07979711   2.95158589   1.30320069 
O    0.52282917   2.17576559   2.12461190 
H   -1.34865785   0.93685970   2.50049162 
C    3.30288233   0.00756427  -1.01798565 
H    4.10684686  -0.59766130  -1.49080065 
H   -0.62569817   3.77698048   1.57534400 
*
