! EnGrad PBEh-3c
%output 
xyzfile=True 
end 
%scf 
maxiter 250 
end
%output
Print[P_Hirshfeld] = 1
end
% maxcore
4000
*xyz 0 1
C   -1.65547432   0.19036188  -0.36545734 
C   -1.92921322  -0.83009446  -1.29498400 
C   -1.47420736  -2.12278358  -1.07067828 
C   -0.65692424  -2.36712887   0.02021554 
C   -0.95660381  -0.05044049   0.85522749 
C   -0.37732540  -1.34580403   0.94734656 
H   -2.05492779   1.17304900  -0.61587863 
H   -2.56399870  -0.62596616  -2.15478958 
H   -1.78789828  -2.92579399  -1.72046852 
H    0.28375480  -1.61069720   1.77166051 
H   -0.28210972  -3.37786395   0.18603421 
Pd   1.37539691   1.14706974   0.05643707 
O    3.01724636   1.14658536  -1.45327543 
O    2.57938064  -0.48297226  -0.10383434 
O    0.38220035   2.83881711   0.04695764 
C    0.07766562   2.96085011   1.25319387 
O    0.52235904   2.16635122   2.14634155 
H   -1.30592557   0.90031687   2.41470670 
C    3.30942491   0.02165097  -1.01206249 
H    4.12105201  -0.58183726  -1.48186004 
H   -0.62265827   3.77064387   1.56628112 
*
