! EnGrad PBEh-3c
%output 
xyzfile=True 
end 
%scf 
maxiter 250 
end
%output
Print[P_Hirshfeld] = 1
end
% maxcore
4000
*xyz 0 1
C   -1.64091841   0.20088011  -0.34983667 
C   -1.96796664  -0.82870349  -1.25308043 
C   -1.55339306  -2.14048386  -1.03023819 
C   -0.69734341  -2.36237427   0.04838423 
C   -0.92650286  -0.01826158   0.86810569 
C   -0.37681395  -1.32520753   0.94125328 
H   -1.98101753   1.18406843  -0.63622528 
H   -2.61215233  -0.63541239  -2.12080288 
H   -1.90327935  -2.96798148  -1.66728700 
H    0.30770130  -1.59082357   1.72544806 
H   -0.33641386  -3.38665587   0.20882418 
Pd   1.36573096   1.10399702   0.05285464 
O    3.08772479   1.21760036  -1.39466068 
O    2.56559489  -0.47517508  -0.14214618 
O    0.38973752   2.79225704   0.07960365 
C    0.06436070   2.94938611   1.31288000 
O    0.47188954   2.19253617   2.15332767 
H   -1.13722007   0.78602154   2.10990406 
C    3.32466799   0.05704979  -1.01244982 
H    4.17186357  -0.51509037  -1.43357976 
H   -0.61719516   3.75212434   1.52659423 
*
