! EnGrad PBEh-3c
%output 
xyzfile=True 
end 
%scf 
maxiter 250 
end
%output
Print[P_Hirshfeld] = 1
end
% maxcore
4000
*xyz 0 1
C   -1.63361172   0.20337900  -0.35633000 
C   -1.98361144  -0.83133197  -1.24165194 
C   -1.58217667  -2.14520878  -1.01244961 
C   -0.71473211  -2.36579709   0.05389815 
C   -0.90593657  -0.00447245   0.86674357 
C   -0.37169791  -1.32654247   0.93377712 
H   -1.95515444   1.18923827  -0.64532275 
H   -2.62907557  -0.63840273  -2.10516982 
H   -1.94278237  -2.97566564  -1.64202076 
H    0.32057468  -1.58485274   1.71134714 
H   -0.35783636  -3.38625204   0.21839566 
Pd   1.35638335   1.08474961   0.04373294 
O    3.11185372   1.24198220  -1.36596953 
O    2.56294772  -0.48017659  -0.15937016 
O    0.38792941   2.77821055   0.08583270 
C    0.06071825   2.94216263   1.32280210 
O    0.44864144   2.19222392   2.18092390 
H   -1.07093436   0.75622946   2.00757963 
C    3.33166069   0.07213656  -1.01195765 
H    4.18920432  -0.49222220  -1.41582908 
H   -0.62496950   3.75820922   1.51666953 
*
