! EnGrad PBEh-3c
%output 
xyzfile=True 
end 
%scf 
maxiter 250 
end
%output
Print[P_Hirshfeld] = 1
end
% maxcore
4000
*xyz 0 1
C   -1.62065501   0.20515469  -0.36871373 
C   -2.00189137  -0.83439245  -1.23066663 
C   -1.61477541  -2.14889798  -0.99050660 
C   -0.73497142  -2.37129780   0.05900165 
C   -0.87378801   0.00631351   0.85200316 
C   -0.36301098  -1.33069404   0.92217061 
H   -1.92762081   1.19649848  -0.65730245 
H   -2.64768523  -0.64115912  -2.08561524 
H   -1.98423781  -2.97799482  -1.60963301 
H    0.33849134  -1.57979780   1.69787577 
H   -0.38264928  -3.38407646   0.23029561 
Pd   1.34060263   1.05872857   0.02454380 
O    3.13618248   1.26999256  -1.32611265 
O    2.56236506  -0.49261779  -0.18297030 
O    0.38091396   2.76187991   0.09730976 
C    0.05424641   2.93360606   1.32700978 
O    0.41297883   2.18763570   2.22689179 
H   -0.98795993   0.73338937   1.89603840 
C    3.33923387   0.08721911  -1.00924902 
H    4.20678263  -0.46726667  -1.39527476 
H   -0.63747639   3.77232985   1.50752822 
*
