! EnGrad PBEh-3c
%output 
xyzfile=True 
end 
%scf 
maxiter 250 
end
%output
Print[P_Hirshfeld] = 1
end
% maxcore
4000
*xyz 0 1
C   -1.73210025   0.20030224  -0.30122640 
C   -1.98148556  -0.80038119  -1.18413427 
C   -1.56256699  -2.10424647  -0.97836170 
C   -0.71681926  -2.32429754   0.08958026 
C   -1.03433705  -0.13711057   0.83507580 
C   -0.44088221  -1.36466218   1.00696404 
H   -2.00317175   1.21178460  -0.54483619 
H   -2.55657597  -0.58761214  -2.04834595 
H   -1.87356202  -2.92409773  -1.63995085 
H    0.26348185  -1.55556638   1.79547201 
H   -0.31603431  -3.29218443   0.23743867 
Pd   1.43808203   1.15039720   0.05593779 
O    3.05060404   1.22404338  -1.39766565 
O    2.58557401  -0.45513723  -0.10148396 
O    0.41000284   2.81009076   0.05343588 
C    0.10007481   2.93650492   1.28730160 
O    0.50763598   2.15913841   2.15894781 
H   -0.97503673   0.49890500   1.57644743 
C    3.29312552   0.06304001  -1.01891472 
H    4.15316494  -0.49008424  -1.40230504 
H   -0.60440321   3.77068984   1.51853961 
*
