! EnGrad PBEh-3c
%output 
xyzfile=True 
end 
%scf 
maxiter 250 
end
%output
Print[P_Hirshfeld] = 1
end
% maxcore
4000
*xyz 0 1
C   -1.74242788   0.19586715  -0.33215630 
C   -2.02898576  -0.82192778  -1.18380200 
C   -1.61632074  -2.10764343  -0.94044310 
C   -0.75568404  -2.35844076   0.09284806 
C   -1.00706543  -0.20060130   0.73235787 
C   -0.43596588  -1.39732393   0.99499605 
H   -1.97355590   1.23493523  -0.53588850 
H   -2.58783644  -0.58111447  -2.02156602 
H   -1.93776700  -2.91867462  -1.58096025 
H    0.27595140  -1.53798812   1.79828199 
H   -0.34263584  -3.29374746   0.26013915 
Pd   1.44262816   1.14579355   0.04356210 
O    3.08099333   1.26337269  -1.36035183 
O    2.59261011  -0.45543616  -0.12283779 
O    0.42103933   2.79987866   0.06306735 
C    0.09669118   2.93274063   1.29517902 
O    0.49313216   2.15848529   2.18316142 
H   -0.86780816   0.51531927   1.48759602 
C    3.31698416   0.09321061  -1.00642829 
H    4.18763202  -0.45008731  -1.37607172 
H   -0.60650470   3.77115395   1.50594268 
*
