! EnGrad PBEh-3c
%output 
xyzfile=True 
end 
%scf 
maxiter 250 
end
%output
Print[P_Hirshfeld] = 1
end
% maxcore
4000
*xyz 0 1
C   -1.74558973   0.18604326  -0.36546399 
C   -2.04801069  -0.83365267  -1.20461059 
C   -1.61904266  -2.11279664  -0.94549355 
C   -0.76096522  -2.38754545   0.08946948 
C   -0.98197718  -0.18528718   0.72760984 
C   -0.42706796  -1.42508078   0.98131100 
H   -1.98464978   1.23813643  -0.52049071 
H   -2.60871853  -0.57336004  -2.05303458 
H   -1.92842134  -2.90012781  -1.57120238 
H    0.26754510  -1.53557037   1.81481939 
H   -0.32734455  -3.32958247   0.26244432 
Pd   1.43617532   1.14951746   0.04059695 
O    3.06431310   1.25999803  -1.35591345 
O    2.59711433  -0.45878980  -0.12701686 
O    0.42233651   2.80354557   0.06574650 
C    0.09353646   2.93546532   1.29811707 
O    0.49467354   2.16410830   2.17454860 
H   -0.85691228   0.57850065   1.55173416 
C    3.32916110   0.09676507  -0.99404313 
H    4.18726603  -0.45335763  -1.38078971 
H   -0.59857440   3.77008304   1.50772809 
*
