! EnGrad PBEh-3c
%output 
xyzfile=True 
end 
%scf 
maxiter 250 
end
%output
Print[P_Hirshfeld] = 1
end
% maxcore
4000
*xyz 0 1
C   -1.72439721   0.18794521  -0.35740285 
C   -2.06773940  -0.83946215  -1.21458477 
C   -1.63209531  -2.12213205  -0.94543354 
C   -0.76856655  -2.40839512   0.09308446 
C   -0.95425575  -0.13700185   0.75917577 
C   -0.42293275  -1.40498299   0.97606802 
H   -1.97982357   1.23565833  -0.52284324 
H   -2.64079523  -0.57738372  -2.07993941 
H   -1.95140418  -2.91379984  -1.56995959 
H    0.26648850  -1.53747763   1.80872612 
H   -0.32993594  -3.37067831   0.26278460 
Pd   1.42800467   1.14408210   0.04480630 
O    3.06775253   1.27006503  -1.34538885 
O    2.59213755  -0.46189774  -0.13672340 
O    0.42243007   2.80018035   0.07316909 
C    0.09011845   2.93302598   1.30739679 
O    0.48437969   2.17406051   2.17040632 
H   -0.82751509   0.58455053   1.53140182 
C    3.34529320   0.10663069  -0.98283831 
H    4.20095858  -0.44531560  -1.38130781 
H   -0.59397391   3.76774408   1.50467042 
*
