! EnGrad PBEh-3c
%output 
xyzfile=True 
end 
%scf 
maxiter 250 
end
%output
Print[P_Hirshfeld] = 1
end
% maxcore
4000
*xyz 0 1
C   -1.72697449   0.19255882  -0.31046013 
C   -1.82057684  -0.78114035  -1.31277126 
C   -1.28817686  -2.03827620  -1.12834605 
C   -0.55211962  -2.31262339   0.00861363 
C   -1.11097775  -0.10003697   0.96155235 
C   -0.42404565  -1.35894696   1.03013480 
H   -2.21119836   1.13203010  -0.50163499 
H   -2.40310530  -0.56491240  -2.20426270 
H   -1.47090348  -2.80762325  -1.85170004 
H    0.16995318  -1.62136621   1.89140434 
H   -0.12691764  -3.29605518   0.14928241 
Pd   1.39866704   1.17752366   0.05070579 
O    2.82057943   1.00706126  -1.55062834 
O    2.60283745  -0.47544823   0.00055389 
O    0.36270030   2.88344166  -0.03864221 
C    0.10992272   2.96847217   1.28994493 
O    0.59127228   2.17200642   2.04058412 
H   -1.47895056   0.82396941   2.46846044 
C    3.18451109  -0.08681460  -1.05581300 
H    3.95373211  -0.70327565  -1.53112787 
H   -0.57797853   3.78603836   1.59360715 
*
