! EnGrad PBEh-3c
%output 
xyzfile=True 
end 
%scf 
maxiter 250 
end
%output
Print[P_Hirshfeld] = 1
end
% maxcore
4000
*xyz 0 1
C   -1.72071740   0.19036286  -0.29652517 
C   -1.83834572  -0.78792481  -1.30380758 
C   -1.31259030  -2.05359472  -1.12173178 
C   -0.56890678  -2.31629741   0.01257755 
C   -1.10875078  -0.06640888   0.99571754 
C   -0.43056431  -1.34318859   1.02569532 
H   -2.18971146   1.14423030  -0.50877955 
H   -2.42251297  -0.56988553  -2.19721114 
H   -1.51466460  -2.82791557  -1.83738407 
H    0.18178601  -1.61648883   1.88070418 
H   -0.14455584  -3.30713874   0.15517961 
Pd   1.39736545   1.18690177   0.07784007 
O    2.84357259   1.02140598  -1.54625415 
O    2.58796628  -0.47163133  -0.01523238 
O    0.36863935   2.87337485  -0.02398531 
C    0.10592830   2.96754775   1.26396264 
O    0.59107298   2.15821186   2.05904211 
H   -1.42770170   0.77653771   2.36241538 
C    3.20767561  -0.05864959  -1.04046604 
H    3.97700582  -0.68802147  -1.52829440 
H   -0.57887035   3.78356838   1.58613016 
*
