! EnGrad PBEh-3c
%output 
xyzfile=True 
end 
%scf 
maxiter 250 
end
%output
Print[P_Hirshfeld] = 1
end
% maxcore
4000
*xyz 0 1
C   -1.71233960   0.18972151  -0.27754636 
C   -1.85476130  -0.78831121  -1.29029798 
C   -1.33927771  -2.06527784  -1.11108744 
C   -0.58452791  -2.31418592   0.02237770 
C   -1.10482421  -0.05156373   1.00829143 
C   -0.43835182  -1.32438658   1.02390941 
H   -2.16788732   1.15367675  -0.51851111 
H   -2.44163673  -0.57563316  -2.18755971 
H   -1.55968032  -2.84950838  -1.82343621 
H    0.19355664  -1.61255555   1.86716171 
H   -0.16385962  -3.31574153   0.16156468 
Pd   1.40062953   1.18831368   0.08578906 
O    2.86941063   1.04232031  -1.53565545 
O    2.58165619  -0.46854410  -0.02705215 
O    0.37052140   2.86343348   0.01517714 
C    0.10285215   2.97159223   1.22752650 
O    0.58681556   2.15054765   2.07465088 
H   -1.37626022   0.73063865   2.25748267 
C    3.21900642  -0.03920660  -1.03179764 
H    4.00099930  -0.66872217  -1.51956604 
H   -0.57876259   3.77768904   1.57845974 
*
