! EnGrad PBEh-3c
%output 
xyzfile=True 
end 
%scf 
maxiter 250 
end
%output
Print[P_Hirshfeld] = 1
end
% maxcore
4000
*xyz 0 1
C   -1.70004381   0.20549424  -0.24971036 
C   -1.90640503  -0.79164238  -1.23615750 
C   -1.44321057  -2.09514369  -1.06444976 
C   -0.64124564  -2.30839465   0.05658810 
C   -1.08174631  -0.02525038   1.01924315 
C   -0.44325084  -1.29522125   1.02515482 
H   -2.08378705   1.17218591  -0.54973005 
H   -2.50668593  -0.59334306  -2.13933593 
H   -1.71925249  -2.91255451  -1.75799441 
H    0.23022148  -1.59326671   1.81147172 
H   -0.23938504  -3.32663029   0.18910387 
Pd   1.41951070   1.16804656   0.08430499 
O    2.96348902   1.13250823  -1.48044253 
O    2.57178976  -0.45852092  -0.06021884 
O    0.39143252   2.83128512   0.03979472 
C    0.09164944   2.95790137   1.28028913 
O    0.54290771   2.16906877   2.08407603 
H   -1.19518590   0.58039136   1.89865902 
C    3.25572455   0.00456275  -1.02578342 
H    4.07928109  -0.58682051  -1.47068436 
H   -0.58201079   3.75795053   1.54549260 
*
