! EnGrad PBEh-3c
%output 
xyzfile=True 
end 
%scf 
maxiter 250 
end
%output
Print[P_Hirshfeld] = 1
end
% maxcore
4000
*xyz 0 1
C   -1.70266809   0.20921567  -0.24851820 
C   -1.92128127  -0.79283383  -1.22048021 
C   -1.47186572  -2.09956204  -1.04609579 
C   -0.65885198  -2.30807216   0.06457144 
C   -1.07283100  -0.04716407   0.98369974 
C   -0.44476876  -1.29737173   1.02606706 
H   -2.06230090   1.17873281  -0.55289706 
H   -2.51995157  -0.59443311  -2.11913960 
H   -1.75914227  -2.92118075  -1.73354428 
H    0.23908088  -1.58591203   1.80218801 
H   -0.25944627  -3.32030591   0.19930293 
Pd   1.42448793   1.16252937   0.07930065 
O    2.98742419   1.15475072  -1.46129105 
O    2.57318632  -0.45684651  -0.06938100 
O    0.39570790   2.82575297   0.04206078 
C    0.09476990   2.95005244   1.28682884 
O    0.53261466   2.16943646   2.09823690 
H   -1.14403028   0.54997393   1.81055801 
C    3.26428385   0.01798000  -1.02651989 
H    4.09774084  -0.56306290  -1.45425876 
H   -0.58813682   3.76029586   1.53874170 
*
