! EnGrad PBEh-3c
%output 
xyzfile=True 
end 
%scf 
maxiter 250 
end
%output
Print[P_Hirshfeld] = 1
end
% maxcore
4000
*xyz 0 1
C   -1.71276072   0.20766282  -0.25932236 
C   -1.93650712  -0.79246618  -1.20610108 
C   -1.49731921  -2.09858984  -1.02405534 
C   -0.67561244  -2.30902201   0.07292471 
C   -1.06278537  -0.10342943   0.90422933 
C   -0.44636785  -1.31583046   1.02388932 
H   -2.04651371   1.18759469  -0.54859063 
H   -2.52679770  -0.59085215  -2.09460267 
H   -1.78919340  -2.91893498  -1.70537768 
H    0.24502518  -1.57684257   1.80228106 
H   -0.27531499  -3.30589671   0.21119163 
Pd   1.43032972   1.15838500   0.06808964 
O    3.00463730   1.17398629  -1.44141511 
O    2.58001425  -0.45625408  -0.07690807 
O    0.39912556   2.82318292   0.04315779 
C    0.09769079   2.94795318   1.28212073 
O    0.52790326   2.16227900   2.12237547 
H   -1.09681887   0.54468554   1.75569909 
C    3.26907370   0.02885107  -1.02738413 
H    4.11133474  -0.54117933  -1.43703412 
H   -0.59488802   3.76611711   1.53399507 
*
