! EnGrad PBEh-3c
%output 
xyzfile=True 
end 
%scf 
maxiter 250 
end
%output
Print[P_Hirshfeld] = 1
end
% maxcore
4000
*xyz -1 1
Pd  -2.05230519  -1.54786380   0.60045420 
Cl  -3.12511793  -3.31692673  -0.49226469 
Cl   0.14188979  -5.18913898   0.53597718 
Cl  -3.95876571  -1.25833695   1.79968706 
N   -1.07857306   0.12177488   1.35871721 
C   -1.42853580   0.73285774   2.47324253 
C   -0.87781719   1.94059379   2.90559126 
C    0.09458766   2.52847400   2.13656665 
C   -0.11183367   0.67829233   0.59709623 
C    0.49733480   1.89590284   0.95425770 
H    0.54329602   3.46636460   2.44473489 
H   -2.13248204   0.19967484   3.09991517 
H   -1.20875852   2.39812671   3.82816019 
C    0.28564304  -0.02780198  -0.57812692 
C    1.50134153   2.44633858   0.09943836 
C    1.86180021   1.80080027  -1.03163112 
C    1.27450090   0.55017537  -1.39881008 
H    1.96923329   3.38892386   0.36591678 
H    2.62509788   2.23849133  -1.66972179 
C   -0.30210151  -1.27944217  -0.86694958 
C    1.67234444  -0.12957710  -2.55973425 
C    0.08061897  -1.88780366  -2.05167292 
C    1.08918206  -1.34595666  -2.85898928 
H    2.42869549   0.29102163  -3.20438352 
H    1.40617944  -1.86213632  -3.75041425 
H   -0.76026032  -4.05607599  -0.34463067 
H   -0.43519646  -2.77675243  -2.39242819 
*
