! EnGrad PBEh-3c
%output 
xyzfile=True 
end 
%scf 
maxiter 250 
end
%output
Print[P_Hirshfeld] = 1
end
% maxcore
4000
*xyz -1 1
Pd  -1.95620061  -1.50294618   0.39216610 
Cl  -3.10078037  -3.31665190  -0.42267420 
Cl  -0.30330939  -4.86283559   0.85783425 
Cl  -4.03791050  -0.83863034   1.48101448 
N   -1.00915327   0.03815557   1.37775684 
C   -1.35592081   0.58687239   2.53387195 
C   -0.82416846   1.81909917   2.95095756 
C    0.08109991   2.45583137   2.14641592 
C   -0.07987320   0.61945623   0.61135630 
C    0.48592462   1.85658094   0.95033188 
H    0.52284912   3.40924629   2.43261040 
H   -2.09914366   0.06896522   3.13866487 
H   -1.15688599   2.26150276   3.88029941 
C    0.30012685  -0.08578987  -0.57144423 
C    1.44304837   2.44514906   0.07172846 
C    1.79367658   1.81925573  -1.06309873 
C    1.25663279   0.53452222  -1.41321563 
H    1.87485108   3.40243211   0.35019548 
H    2.52229498   2.28512116  -1.73159100 
C   -0.31954435  -1.33044828  -0.87542800 
C    1.67281202  -0.10938228  -2.59151586 
C    0.12986481  -1.92626692  -2.04391693 
C    1.11367590  -1.33767384  -2.87738025 
H    2.39929204   0.37150423  -3.24618526 
H    1.45948336  -1.83099070  -3.78845207 
H   -0.52459626  -3.97290886  -0.13742961 
H   -0.27770446  -2.85295642  -2.41533091 
*
