! EnGrad PBEh-3c
%output 
xyzfile=True 
end 
%scf 
maxiter 250 
end
%output
Print[P_Hirshfeld] = 1
end
% maxcore
4000
*xyz -1 1
Pd  -1.95388838  -1.50867290   0.39997068 
Cl  -3.10145020  -3.31699789  -0.42401246 
Cl  -0.28123816  -4.87823727   0.82722871 
Cl  -4.03962153  -0.87030733   1.50861399 
N   -1.01472950   0.04556210   1.37779112 
C   -1.35932660   0.59766031   2.53118375 
C   -0.82941627   1.82897757   2.94779372 
C    0.08260723   2.46325196   2.14414978 
C   -0.08230596   0.62496288   0.60992145 
C    0.48620301   1.85938984   0.94978685 
H    0.52528568   3.41353421   2.43334092 
H   -2.10306054   0.07878643   3.13764762 
H   -1.16124023   2.27291751   3.87598749 
C    0.29895113  -0.08355588  -0.57048716 
C    1.44754842   2.44593628   0.07542057 
C    1.79954963   1.81819355  -1.06240193 
C    1.25699865   0.53530887  -1.41179910 
H    1.88218150   3.40070817   0.35166578 
H    2.53113590   2.28229056  -1.72674929 
C   -0.32390695  -1.32794882  -0.87217676 
C    1.67469200  -0.11063773  -2.58987958 
C    0.12446582  -1.92285847  -2.04141196 
C    1.11075596  -1.33830565  -2.87615295 
H    2.40336329   0.36682994  -3.24423622 
H    1.45798317  -1.83292659  -3.78832515 
H   -0.53301377  -3.99268063  -0.14948103 
H   -0.28887013  -2.84540676  -2.41558798 
*
