! EnGrad PBEh-3c
%output 
xyzfile=True 
end 
%scf 
maxiter 250 
end
%output
Print[P_Hirshfeld] = 1
end
% maxcore
4000
*xyz -1 1
Pd  -1.95541445  -1.50489326   0.39481966 
Cl  -3.10100811  -3.31676953  -0.42312921 
Cl  -0.29580517  -4.86807216   0.84742836 
Cl  -4.03849225  -0.84940052   1.49039832 
N   -1.01104919   0.04067379   1.37776849 
C   -1.35707878   0.59054028   2.53295796 
C   -0.82595272   1.82245783   2.94988185 
C    0.08161240   2.45835437   2.14564543 
C   -0.08070033   0.62132850   0.61086845 
C    0.48601927   1.85753597   0.95014657 
H    0.52367755   3.41070419   2.43285878 
H   -2.10047540   0.07230443   3.13831900 
H   -1.15836643   2.26538378   3.87883335 
C    0.29972710  -0.08503032  -0.57111882 
C    1.44457839   2.44541672   0.07298378 
C    1.79567342   1.81889459  -1.06286182 
C    1.25675718   0.53478968  -1.41273401 
H    1.87734342   3.40184597   0.35069538 
H    2.52530090   2.28415876  -1.72994482 
C   -0.32102763  -1.32959846  -0.87432258 
C    1.67345121  -0.10980913  -2.59095953 
C    0.12802915  -1.92510805  -2.04306524 
C    1.11268312  -1.33788865  -2.87696297 
H    2.40067627   0.36991497  -3.24552259 
H    1.45897329  -1.83164890  -3.78840892 
H   -0.52745821  -3.97963126  -0.14152710 
H   -0.28150079  -2.85038953  -2.41541831 
*
