! EnGrad PBEh-3c
%output 
xyzfile=True 
end 
%scf 
maxiter 250 
end
%output
Print[P_Hirshfeld] = 1
end
% maxcore
4000
*xyz -1 1
Pd  -1.95275536  -1.54194220   0.47672487 
Cl  -3.11573055  -3.32007691  -0.45022722 
Cl  -0.10442675  -4.96955269   0.57276118 
Cl  -4.02942389  -1.10177016   1.70107080 
N   -1.06910690   0.09479966   1.38150120 
C   -1.40939216   0.66948556   2.52969646 
C   -0.85391133   1.90652899   2.91047447 
C    0.08461745   2.50162042   2.13981912 
C   -0.10285780   0.64763557   0.58509947 
C    0.49836000   1.89757873   0.95817452 
H    0.53962339   3.44530435   2.43989526 
H   -2.11097909   0.15974766   3.10784361 
H   -1.19196045   2.34960546   3.84623748 
C    0.30716806  -0.06091591  -0.58165138 
C    1.48134330   2.44294967   0.08875371 
C    1.84361875   1.81884367  -1.04523500 
C    1.28242548   0.55692299  -1.42627659 
H    1.93324147   3.38895194   0.36042194 
H    2.58493154   2.25321919  -1.68748832 
C   -0.37698192  -1.31110700  -0.81001126 
C    1.65774031  -0.14231432  -2.55962288 
C    0.10790832  -1.89865554  -2.05067496 
C    1.11715255  -1.31252735  -2.87349721 
H    2.42534952   0.32629433  -3.22492456 
H    1.43870513  -1.85599046  -3.78444289 
H   -0.60207635  -4.13782253  -0.19482670 
H   -0.37897347  -2.80374907  -2.40981030 
*
