! EnGrad PBEh-3c
%output 
xyzfile=True 
end 
%scf 
maxiter 250 
end
%output
Print[P_Hirshfeld] = 1
end
% maxcore
4000
*xyz -1 1
Pd  -1.93013892  -1.53305645   0.43098795 
Cl  -3.10809589  -3.31976361  -0.43425389 
Cl  -0.19923285  -4.89567292   0.62777071 
Cl  -4.04848892  -1.01838562   1.63950644 
N   -1.05250128   0.07821588   1.38366781 
C   -1.37159980   0.65510964   2.52330233 
C   -0.85986279   1.87205044   2.93404356 
C    0.09179761   2.50013887   2.13769053 
C   -0.09603839   0.65113837   0.60220288 
C    0.49126993   1.87265304   0.94579940 
H    0.53452024   3.43137215   2.43701993 
H   -2.11888288   0.12488998   3.12819812 
H   -1.17961537   2.32254134   3.85212766 
C    0.30503025  -0.07567216  -0.57621246 
C    1.46998435   2.44970264   0.09049910 
C    1.82812072   1.81462431  -1.05727883 
C    1.27008905   0.55239147  -1.41657962 
H    1.91458588   3.39027836   0.35682456 
H    2.56846928   2.26552704  -1.70190923 
C   -0.37106691  -1.32772677  -0.83418243 
C    1.69440582  -0.09687829  -2.57895232 
C    0.10726308  -1.89723963  -2.02686230 
C    1.10070362  -1.35278910  -2.88659207 
H    2.41000298   0.33590447  -3.22514262 
H    1.45075682  -1.84374546  -3.78866906 
H   -0.55029512  -4.13406679  -0.14624987 
H   -0.34532560  -2.81734523  -2.41749614 
*
