! EnGrad PBEh-3c
%output 
xyzfile=True 
end 
%scf 
maxiter 250 
end
%output
Print[P_Hirshfeld] = 1
end
% maxcore
4000
*xyz -1 1
Pd  -1.94840542  -1.51079682   0.39191277 
Cl  -3.09830997  -3.31668085  -0.41916105 
Cl  -0.28934027  -4.88120880   0.83878098 
Cl  -4.04653683  -0.86653376   1.50838455 
N   -1.00566655   0.04813131   1.37182767 
C   -1.36057142   0.59131198   2.53373370 
C   -0.82318793   1.83472415   2.94600642 
C    0.07785475   2.45846539   2.14307788 
C   -0.08448700   0.62271642   0.61209448 
C    0.48434440   1.86007295   0.95077253 
H    0.52742289   3.41555405   2.43358438 
H   -2.10488713   0.07774218   3.14106850 
H   -1.16216236   2.27345479   3.87773668 
C    0.29186742  -0.08743316  -0.56302242 
C    1.44825858   2.44315580   0.07177825 
C    1.79744466   1.82153285  -1.05903586 
C    1.25324108   0.53068901  -1.40918359 
H    1.88242807   3.40198939   0.35268764 
H    2.53326375   2.28475015  -1.72881197 
C   -0.31849737  -1.32391481  -0.87893561 
C    1.67061059  -0.12127977  -2.59291120 
C    0.11722913  -1.92941857  -2.03837259 
C    1.10972064  -1.32900393  -2.86749211 
H    2.41018748   0.37273038  -3.24997948 
H    1.46145114  -1.83323198  -3.79315368 
H   -0.52901014  -3.99159177  -0.15922708 
H   -0.28435754  -2.84022072  -2.41640919 
*
