! EnGrad PBEh-3c
%output 
xyzfile=True 
end 
%scf 
maxiter 250 
end
%output
Print[P_Hirshfeld] = 1
end
% maxcore
4000
*xyz -1 1
Pd  -1.94715315  -1.52418618   0.42429357 
Cl  -3.10470592  -3.31809213  -0.43071065 
Cl  -0.21488844  -4.91700687   0.72874736 
Cl  -4.04211232  -0.96357788   1.58921892 
N   -1.03094203   0.06753428   1.37504716 
C   -1.36974963   0.63058367   2.52417498 
C   -0.84361680   1.86015915   2.93807385 
C    0.08491959   2.48201978   2.14010112 
C   -0.09237662   0.64002014   0.60773595 
C    0.48804196   1.86764642   0.94837074 
H    0.53204374   3.42674154   2.43609789 
H   -2.11393616   0.10754863   3.13310969 
H   -1.17343408   2.30477018   3.86234053 
C    0.29630014  -0.07857769  -0.56903358 
C    1.46235109   2.44591078   0.08139777 
C    1.81542819   1.81727415  -1.05525438 
C    1.26201788   0.54185116  -1.41136071 
H    1.90340556   3.39588779   0.35562058 
H    2.55641219   2.27305423  -1.71268822 
C   -0.33974928  -1.32266766  -0.85993998 
C    1.68340843  -0.10937774  -2.58538179 
C    0.10855199  -1.91194728  -2.03219274 
C    1.10309557  -1.34216779  -2.87528415 
H    2.41129612   0.35009072  -3.23526012 
H    1.45316339  -1.84000581  -3.78864611 
H   -0.55801780  -4.05427783  -0.17454767 
H   -0.32243884  -2.82460163  -2.41542358 
*
