! EnGrad PBEh-3c
%output 
xyzfile=True 
end 
%scf 
maxiter 250 
end
%output
Print[P_Hirshfeld] = 1
end
% maxcore
4000
*xyz -1 1
Pd  -1.97529215  -1.45566204   0.32772569 
Cl  -3.09524977  -3.31379508  -0.41162451 
Cl  -0.48554593  -4.73566781   1.11053641 
Cl  -4.02378297  -0.57708152   1.25313238 
N   -0.96311170  -0.02299826   1.37747378 
C   -1.32780010   0.49779927   2.55606775 
C   -0.78083865   1.73753569   2.97708056 
C    0.06865428   2.39456148   2.16512681 
C   -0.05978649   0.57398924   0.62320353 
C    0.48362603   1.83338850   0.95483207 
H    0.50273104   3.37384203   2.42657862 
H   -2.06680296  -0.01212602   3.14706400 
H   -1.12093410   2.16725409   3.91590178 
C    0.30983446  -0.10423535  -0.57934652 
C    1.40589263   2.43864918   0.04124365 
C    1.74518435   1.82802591  -1.06885204 
C    1.25361202   0.52802705  -1.42491156 
H    1.81432567   3.41666620   0.33805564 
H    2.44929778   2.30849272  -1.77156778 
C   -0.28352347  -1.35108572  -0.90227269 
C    1.65728944  -0.09901634  -2.60502624 
C    0.17444292  -1.95440963  -2.06459985 
C    1.13778513  -1.33245712  -2.88751384 
H    2.36567678   0.41009860  -3.26227797 
H    1.47187007  -1.81500649  -3.78949999 
H   -0.45509499  -3.80965839  -0.03792414 
H   -0.18551237  -2.91529202  -2.41320836 
*
