! EnGrad PBEh-3c
%output 
xyzfile=True 
end 
%scf 
maxiter 250 
end
%output
Print[P_Hirshfeld] = 1
end
% maxcore
4000
*xyz 1 1
Sc   1.65360500  -1.40510853  -1.52916515 
C    0.45307937  -0.69786126   0.24273677 
N   -0.46790592  -1.40011978   0.92122777 
C   -0.88438686  -0.70920126   2.02866908 
C   -0.20077765   0.45432224   2.03760879 
N    0.60324831   0.45269857   0.92179144 
C    1.48941320   1.54863343   0.56637482 
H    1.78757998   2.08895670   1.45964491 
H    0.98863051   2.23560029  -0.12299050 
H    2.39587870   1.15627606   0.09388634 
C   -0.99958677  -2.70810470   0.58711154 
H   -0.48298359  -3.10839609  -0.28343667 
H   -2.06292993  -2.64189566   0.35633468 
H   -0.85326262  -3.39232945   1.42068882 
H   -1.58270389  -1.11155930   2.75116020 
H   -0.25333568   1.29411788   2.72127005 
C   -0.38516707   1.62048780  -2.81997933 
H   -0.95743074   1.25515118  -3.59222059 
H   -0.26236711   2.63792120  -2.85465538 
H   -0.68446543   1.28589783  -1.89889023 
H    0.70646440   1.14642370  -3.00685030 
*
