! EnGrad PBEh-3c
%output 
xyzfile=True 
end 
%scf 
maxiter 250 
end
%output
Print[P_Hirshfeld] = 1
end
% maxcore
4000
*xyz 1 1
Sc   1.65328899  -1.40491444  -1.52962848 
C    0.45427074  -0.69870752   0.24024560 
N   -0.46973634  -1.39896280   0.92386523 
C   -0.88378829  -0.71093762   2.03007591 
C   -0.20074865   0.45903442   2.03539350 
N    0.60225722   0.45110563   0.92632264 
C    1.48949639   1.54775218   0.56362873 
H    1.78800912   2.08883933   1.45982127 
H    0.98986033   2.23471704  -0.12135258 
H    2.39413822   1.15723707   0.09424490 
C   -0.99913071  -2.70893555   0.58620879 
H   -0.48283810  -3.10866348  -0.28272199 
H   -2.06203176  -2.64158984   0.35617220 
H   -0.85348966  -3.39221960   1.42075599 
H   -1.58239815  -1.11052318   2.74899827 
H   -0.25311584   1.29202002   2.71970262 
C   -0.35272661   1.60585000  -2.82533848 
H   -0.97043198   1.24869386  -3.60615906 
H   -0.26407878   2.65964811  -2.85495664 
H   -0.69439775   1.27961874  -1.87927380 
H    0.69820511   1.15297001  -3.00557166 
*
