! EnGrad PBEh-3c
%output 
xyzfile=True 
end 
%scf 
maxiter 250 
end
%output
Print[P_Hirshfeld] = 1
end
% maxcore
4000
*xyz 1 1
Sc   1.66136721  -1.39922240  -1.52488822 
C    0.46012525  -0.70981853   0.24923524 
N   -0.46647143  -1.39928387   0.93468438 
C   -0.87339718  -0.70205444   2.03834953 
C   -0.21121800   0.46467011   2.02962913 
N    0.61288684   0.44115821   0.93488415 
C    1.48007746   1.54084488   0.56453564 
H    1.76947035   2.08512076   1.45545008 
H    0.99042288   2.22324981  -0.12590810 
H    2.38457284   1.16134183   0.09611342 
C   -0.99598286  -2.70606872   0.58959846 
H   -0.48281905  -3.09945496  -0.28622670 
H   -2.05560497  -2.63365818   0.36068433 
H   -0.84946586  -3.39686291   1.41426787 
H   -1.59743115  -1.10104173   2.73286286 
H   -0.23316703   1.28891718   2.72627049 
C   -0.32056258   1.58842847  -2.83402410 
H   -1.01006854   1.24487086  -3.64055417 
H   -0.20262446   2.68743206  -2.87305429 
H   -0.70793566   1.25898879  -1.84310408 
H    0.64929299   1.16920190  -2.99603958 
*
