! EnGrad PBEh-3c
%output 
xyzfile=True 
end 
%scf 
maxiter 250 
end
%output
Print[P_Hirshfeld] = 1
end
% maxcore
4000
*xyz 0 1
Pd   2.10785011   0.92282715  -0.76256325 
O   -0.53949644   2.59401395  -0.71136100 
O    0.12252361   0.50348953  -0.33498926 
O    4.00411029   1.45549178  -0.92728881 
O    3.20548356   1.58110311   1.09489507 
C   -0.75282314   1.37264683  -0.34565174 
C   -2.17646397   1.10709328  -0.04821771 
H   -2.61933292   1.93145189   0.51553137 
H   -2.30989860   0.14850637   0.45296637 
H   -2.65305141   1.08356934  -1.03284494 
C    4.16800986   1.70602595   0.31553995 
C    5.54166063   2.13527958   0.71972677 
H    5.64847918   2.23419871   1.79713252 
H    5.78893101   3.08055145   0.23393302 
H    6.23176867   1.38308292   0.34221893 
C    1.87898304   0.05832059  -2.50072360 
C    0.76894014   0.20655471  -3.32586730 
C    2.80038395  -0.95038212  -2.78681378 
C    0.50801186  -0.71335623  -4.33804695 
C    1.36597834  -1.78430249  -4.54257641 
C    2.52528220  -1.88534808  -3.78328667 
H   -0.39722028  -0.60720140  -4.93007251 
H    1.11017272  -2.54626753  -5.26259407 
H    0.39826155   2.64703784  -0.99594755 
H    0.09715621   1.05208247  -3.20360108 
H    3.74863350  -0.99930606  -2.25659205 
H    3.21542433  -2.71069350  -3.93966553 
*
