! EnGrad PBEh-3c
%output 
xyzfile=True 
end 
%scf 
maxiter 250 
end
%output
Print[P_Hirshfeld] = 1
end
% maxcore
4000
*xyz 0 1
Pd   2.12062355   0.92012451  -0.76491792 
O   -0.52647082   2.60289330  -0.76572571 
O    0.10742388   0.50447726  -0.33339716 
O    4.01714388   1.48020663  -0.94259506 
O    3.20699819   1.55106301   1.08089728 
C   -0.75619668   1.36877441  -0.36957384 
C   -2.18671967   1.08755092  -0.06184134 
H   -2.60569658   1.92609205   0.49851202 
H   -2.31758022   0.13192668   0.46295200 
H   -2.67277353   1.06592248  -1.04539905 
C    4.17441798   1.70898402   0.30908000 
C    5.55331233   2.10117825   0.73026777 
H    5.67094871   2.17537501   1.80985836 
H    5.79633592   3.06042284   0.27412648 
H    6.25374713   1.36560717   0.32436795 
C    1.88532900   0.11393157  -2.51533854 
C    0.75570177   0.22153324  -3.32035407 
C    2.80901567  -0.88495599  -2.81261757 
C    0.48077826  -0.72728401  -4.30458959 
C    1.34707023  -1.79697178  -4.49741752 
C    2.52835576  -1.86230814  -3.76352082 
H   -0.42443121  -0.63847126  -4.90853674 
H    1.09127125  -2.58135599  -5.20563591 
H    0.40950584   2.66148478  -1.00824776 
H    0.06834655   1.04805196  -3.20472077 
H    3.76425413  -0.91604050  -2.29998849 
H    3.22906192  -2.67946253  -3.93109549 
*
