! EnGrad PBEh-3c
%output 
xyzfile=True 
end 
%scf 
maxiter 250 
end
%output
Print[P_Hirshfeld] = 1
end
% maxcore
4000
*xyz 0 1
Pd   2.11349905   0.92049424  -0.76936136 
O   -0.52792707   2.59550292  -0.77453381 
O    0.11263962   0.50785308  -0.33198621 
O    4.02063270   1.49028950  -0.94432595 
O    3.21223838   1.54700656   1.08235052 
C   -0.75689561   1.36232212  -0.37643761 
C   -2.18360536   1.08904466  -0.06834087 
H   -2.60711685   1.91830421   0.49270210 
H   -2.31670452   0.14316519   0.45537165 
H   -2.67935903   1.05819907  -1.03963955 
C    4.17643537   1.69940739   0.30633056 
C    5.55533187   2.09284962   0.73313745 
H    5.67566746   2.15791378   1.81095838 
H    5.80054967   3.05602099   0.28398680 
H    6.25571161   1.36307321   0.32112720 
C    1.88171104   0.12076934  -2.52744919 
C    0.74858825   0.22492209  -3.32320817 
C    2.81470912  -0.87364885  -2.82176737 
C    0.47729856  -0.72835326  -4.29666138 
C    1.34087295  -1.80091321  -4.48288825 
C    2.52788586  -1.85253467  -3.76359620 
H   -0.42499867  -0.64866457  -4.89422367 
H    1.08860353  -2.58803730  -5.18601116 
H    0.41341069   2.66492754  -1.01343020 
H    0.05913681   1.04920557  -3.20467535 
H    3.77028373  -0.89390828  -2.31023239 
H    3.22889341  -2.66459232  -3.92457940 
*
