! EnGrad PBEh-3c
%output 
xyzfile=True 
end 
%scf 
maxiter 250 
end
%output
Print[P_Hirshfeld] = 1
end
% maxcore
4000
*xyz 0 1
Pd   2.11224957   0.92111562  -0.77154751 
O   -0.52810230   2.59267868  -0.77871141 
O    0.11423154   0.50836914  -0.33123534 
O    4.02101060   1.49410639  -0.94542091 
O    3.21421356   1.54453313   1.08230539 
C   -0.75640654   1.36058986  -0.37977409 
C   -2.18237873   1.08920049  -0.07116681 
H   -2.60775442   1.91601325   0.49053696 
H   -2.31642951   0.14618521   0.45308097 
H   -2.68279792   1.05484790  -1.03858630 
C    4.17767741   1.69632579   0.30567320 
C    5.55660245   2.08890587   0.73413380 
H    5.67777430   2.14981527   1.81175897 
H    5.80225033   3.05377238   0.28866271 
H    6.25698938   1.36168113   0.31954370 
C    1.88091993   0.12462914  -2.53145289 
C    0.74564745   0.22684844  -3.32401981 
C    2.81676429  -0.86699766  -2.82523993 
C    0.47548738  -0.72984064  -4.29326345 
C    1.33812028  -1.80244076  -4.47683302 
C    2.52791435  -1.84842266  -3.76312698 
H   -0.42653115  -0.65322424  -4.88855872 
H    1.08711448  -2.59131877  -5.17705196 
H    0.41476794   2.66664349  -1.01612137 
H    0.05476376   1.04974470  -3.20465667 
H    3.77282270  -0.88368419  -2.31518419 
H    3.22953233  -2.65862608  -3.92208017 
*
