! EnGrad PBEh-3c
%output 
xyzfile=True 
end 
%scf 
maxiter 250 
end
%output
Print[P_Hirshfeld] = 1
end
% maxcore
4000
*xyz 0 1
Pd   2.09683310   0.75094523  -0.67271278 
O   -0.37514199   2.67206647  -0.56624956 
O    0.06857924   0.45439219  -0.24239666 
O    3.98023495   1.33103412  -0.90609574 
O    3.14865549   1.74403043   1.05607544 
C   -0.72760936   1.37122199  -0.26811081 
C   -2.20675020   1.10725366  -0.01983694 
H   -2.65068368   1.89220830   0.58549770 
H   -2.34015272   0.14178275   0.46338837 
H   -2.73424849   1.09244220  -0.97531097 
C    4.13204276   1.74565402   0.28065402 
C    5.49963397   2.21576286   0.68847052 
H    5.54153773   2.45757720   1.73700874 
H    5.74615343   3.11202981   0.10511123 
H    6.25947538   1.47375819   0.44224222 
C    1.90422047  -0.04171662  -2.44701187 
C    0.83725566   0.18629752  -3.33891833 
C    2.75664418  -1.12424181  -2.74746599 
C    0.58808509  -0.66757968  -4.40682902 
C    1.42604520  -1.74804458  -4.64738924 
C    2.51499706  -1.96922034  -3.82194508 
H   -0.25923738  -0.48749395  -5.04625348 
H    1.23792507  -2.41071776  -5.47780763 
H    0.43477555   2.85824411  -1.03843233 
H    0.15978838   1.02291953  -3.18484786 
H    3.58700929  -1.36336816  -2.09227607 
H    3.17533856  -2.80466054  -4.00301361 
*
