! EnGrad PBEh-3c
%output 
xyzfile=True 
end 
%scf 
maxiter 250 
end
%output
Print[P_Hirshfeld] = 1
end
% maxcore
4000
*xyz 0 1
Pd   2.09926105   0.75650954  -0.68618663 
O   -0.37324559   2.66775647  -0.57174017 
O    0.06846520   0.45054496  -0.24321607 
O    3.97743704   1.33204825  -0.90826794 
O    3.15421188   1.73812882   1.06238447 
C   -0.71967880   1.37936353  -0.27080302 
C   -2.20337580   1.10990013  -0.02113542 
H   -2.65159834   1.89237835   0.58336563 
H   -2.34087252   0.14173623   0.46248584 
H   -2.73322140   1.09144869  -0.97728378 
C    4.12972859   1.75000981   0.28381879 
C    5.50008189   2.21370049   0.68801058 
H    5.54540189   2.45108810   1.74028181 
H    5.74676220   3.10978542   0.10927654 
H    6.25886709   1.47077251   0.43906840 
C    1.90162862  -0.04085978  -2.44459782 
C    0.83828081   0.18827672  -3.33652750 
C    2.75777453  -1.11590495  -2.74811111 
C    0.58777475  -0.66868736  -4.40510485 
C    1.42338030  -1.74947580  -4.64431426 
C    2.51516471  -1.96584820  -3.82149466 
H   -0.26475395  -0.49200618  -5.04273887 
H    1.23399414  -2.41517726  -5.47216518 
H    0.42317628   2.84935974  -1.03441640 
H    0.15846164   1.02368109  -3.18637482 
H    3.59196115  -1.35325284  -2.09735090 
H    3.17621135  -2.80292049  -4.00094217 
*
