! EnGrad PBEh-3c
%output 
xyzfile=True 
end 
%scf 
maxiter 250 
end
%output
Print[P_Hirshfeld] = 1
end
% maxcore
4000
*xyz 0 1
Pd   2.09699929   0.79144163  -0.72924894 
O   -0.45039970   2.62732184  -0.56236334 
O    0.07961723   0.45375376  -0.25534970 
O    3.97920350   1.34469954  -0.91782614 
O    3.17549986   1.71153050   1.08719524 
C   -0.70194235   1.39467016  -0.28744525 
C   -2.17152180   1.12835249  -0.02876472 
H   -2.65616002   1.89623174   0.57368492 
H   -2.33662733   0.15172429   0.45394678 
H   -2.72140328   1.08879372  -0.98407979 
C    4.12656135   1.75243652   0.29714209 
C    5.50119640   2.20749664   0.68383681 
H    5.56387198   2.41815923   1.75593058 
H    5.75256359   3.10151448   0.13023449 
H    6.25125828   1.45564478   0.42343136 
C    1.88611308  -0.05157714  -2.46034035 
C    0.83631075   0.19582186  -3.32324195 
C    2.76208519  -1.08311686  -2.74799689 
C    0.58767142  -0.66825435  -4.39131965 
C    1.41138407  -1.75504558  -4.62889697 
C    2.51732609  -1.94326073  -3.81481801 
H   -0.28897224  -0.51281736  -5.02353497 
H    1.21259444  -2.43901690  -5.44461072 
H    0.43586496   2.80750611  -1.04308540 
H    0.15289632   1.02633707  -3.19284254 
H    3.61817006  -1.29873580  -2.12363281 
H    3.17981690  -2.79065060  -3.98926832 
*
