! EnGrad PBEh-3c
%output 
xyzfile=True 
end 
%scf 
maxiter 250 
end
%output
Print[P_Hirshfeld] = 1
end
% maxcore
4000
*xyz 0 1
Pd   2.09619916   0.80205399  -0.74554358 
O   -0.42302956   2.64362010  -0.58924450 
O    0.08568577   0.45276582  -0.26079559 
O    3.97737449   1.35225530  -0.91647835 
O    3.18134112   1.70080138   1.09760395 
C   -0.70761500   1.38066759  -0.28370069 
C   -2.16935910   1.12750316  -0.03087196 
H   -2.65635294   1.89723815   0.56898605 
H   -2.33524651   0.15615393   0.45038071 
H   -2.71615274   1.08781064  -0.98586401 
C    4.12750319   1.75298414   0.29569588 
C    5.50281188   2.20142980   0.68904786 
H    5.57113040   2.40427127   1.75823899 
H    5.75518322   3.10048963   0.13669300 
H    6.24851050   1.45020065   0.41680714 
C    1.88415854  -0.04389873  -2.45513952 
C    0.83140050   0.19699434  -3.32628791 
C    2.76696048  -1.07509209  -2.75331774 
C    0.58207144  -0.66884833  -4.38869068 
C    1.40778855  -1.75745841  -4.62175040 
C    2.51925987  -1.93855063  -3.81333374 
H   -0.29636956  -0.52152832  -5.01379313 
H    1.20456635  -2.44763496  -5.43211345 
H    0.40250767   2.78895358  -1.02710673 
H    0.15019949   1.02846784  -3.19482606 
H    3.62865286  -1.27692930  -2.13356705 
H    3.18042527  -2.78418588  -3.98417653 
*
