! EnGrad PBEh-3c
%output 
xyzfile=True 
end 
%scf 
maxiter 250 
end
%output
Print[P_Hirshfeld] = 1
end
% maxcore
4000
*xyz 0 1
Pd   2.07787735   0.85470772  -0.74815599 
O   -0.47298476   2.62953119  -0.62820444 
O    0.11708406   0.48338339  -0.29457452 
O    3.99302631   1.39576606  -0.91763973 
O    3.19247568   1.66161416   1.10591460 
C   -0.73515173   1.34942310  -0.29758909 
C   -2.17209095   1.12256376  -0.03438379 
H   -2.64583609   1.90590508   0.54737346 
H   -2.31715194   0.18041761   0.43583072 
H   -2.67984073   1.08953282  -0.98992485 
C    4.14700296   1.72102822   0.30585119 
C    5.51300627   2.18148210   0.70278248 
H    5.59740750   2.34624175   1.76699275 
H    5.77064514   3.10105054   0.16518528 
H    6.23112720   1.42822964   0.39049310 
C    1.87915181  -0.02341418  -2.48142288 
C    0.80000689   0.19586972  -3.33535277 
C    2.78167103  -1.05091810  -2.76632169 
C    0.55803773  -0.67874600  -4.37678010 
C    1.39465087  -1.76228527  -4.59392326 
C    2.52370449  -1.92084717  -3.80868873 
H   -0.32245178  -0.55120554  -4.97429386 
H    1.17025786  -2.48074180  -5.37464833 
H    0.39595246   2.72303369  -1.01060320 
H    0.13619502   1.03984630  -3.19815070 
H    3.67742710  -1.18039960  -2.17324025 
H    3.18543644  -2.75230311  -3.96283034 
*
