! EnGrad PBEh-3c
%output 
xyzfile=True 
end 
%scf 
maxiter 250 
end
%output
Print[P_Hirshfeld] = 1
end
% maxcore
4000
*xyz -1 1
Pt  -1.14125495  -0.97183686   0.59152330 
Cl  -0.29559758  -0.72552987   2.73719754 
Cl  -2.72146474  -2.39265016   1.17417294 
Cl  -1.77797127  -0.99532687  -1.63568125 
C    1.20779098   0.92107037  -0.43720944 
H    1.45603307   2.00624793  -0.22069733 
H    1.24099698   0.34024287   0.21876272 
H    1.86144582   0.68027815  -1.33852335 
H    0.16830275   1.13747868  -1.09036238 
*
