! EnGrad PBEh-3c
%output 
xyzfile=True 
end 
%scf 
maxiter 250 
end
%output
Print[P_Hirshfeld] = 1
end
% maxcore
4000
*xyz -1 1
Pt  -1.13819169  -0.96247253   0.59165148 
Cl  -0.29541105  -0.74153204   2.75104854 
Cl  -2.74195650  -2.42452517   1.17780451 
Cl  -1.80338239  -0.98730315  -1.63699765 
C    1.17565106   0.99898707  -0.54713191 
H    1.45204977   2.02133640  -0.24081891 
H    1.28229068   0.28750771   0.34899835 
H    1.88053605   0.67000774  -1.32566274 
H    0.18772323   1.13797926  -1.11921690 
*
