! EnGrad PBEh-3c
%output 
xyzfile=True 
end 
%scf 
maxiter 250 
end
%output
Print[P_Hirshfeld] = 1
end
% maxcore
4000
*xyz -1 1
Pt  -1.14682668  -0.97589181   0.59000968 
Cl  -0.29611010  -0.72102220   2.72552383 
Cl  -2.71486481  -2.38250419   1.17541720 
Cl  -1.76838439  -0.99633329  -1.63148780 
C    1.18277817   0.93819056  -0.47156006 
H    1.45907036   1.97913879  -0.20909365 
H    1.21439388   0.36696781   0.17030248 
H    1.85125703   0.68333817  -1.32370269 
H    0.21567219   1.10825188  -1.02675673 
*
