! EnGrad PBEh-3c
%output 
xyzfile=True 
end 
%scf 
maxiter 250 
end
%output
Print[P_Hirshfeld] = 1
end
% maxcore
4000
*xyz -1 1
Pt  -1.14215179  -0.96862675   0.59089853 
Cl  -0.29573164  -0.73212602   2.73934264 
Cl  -2.72953197  -2.40525391   1.17670966 
Cl  -1.78733194  -0.99144447  -1.63447078 
C    1.17891963   0.97110516  -0.51247387 
H    1.45526949   2.00198414  -0.22626938 
H    1.25115250   0.32394894   0.26704656 
H    1.86710839   0.67612121  -1.32476384 
H    0.20054091   1.12434597  -1.07681370 
*
