! EnGrad PBEh-3c
%output 
xyzfile=True 
end 
%scf 
maxiter 250 
end
%output
Print[P_Hirshfeld] = 1
end
% maxcore
4000
*xyz -1 1
Pt  -1.13628208  -0.96462305   0.58422805 
Cl  -0.29499517  -0.71821270   2.71834656 
Cl  -2.73024958  -2.39249860   1.18545568 
Cl  -1.76372082  -0.99617653  -1.63405605 
C    1.17936188   1.01639304  -0.56947736 
H    1.47216492   1.98964327  -0.18847937 
H    1.20584759   0.29860364   0.24642490 
H    1.86656501   0.67645706  -1.33497215 
H    0.19585022   1.09115566  -1.00930848 
*
