! EnGrad PBEh-3c
%output 
xyzfile=True 
end 
%scf 
maxiter 250 
end
%output
Print[P_Hirshfeld] = 1
end
% maxcore
4000
*xyz 0 1
C   -1.57755445   0.19312850  -0.48196507 
C   -1.98729865  -0.85607274  -1.29510688 
C   -1.59014103  -2.14786689  -1.01962258 
C   -0.71205756  -2.39981196   0.01653753 
C   -0.81035794  -0.13145364   0.61620051 
C   -0.30684054  -1.38509572   0.87069484 
H   -1.97687024   1.16216242  -0.76062146 
H   -2.68410344  -0.67682713  -2.10948349 
H   -1.99198534  -2.97018252  -1.60849324 
H    0.38033016  -1.64573708   1.66734396 
H   -0.40307983  -3.42031156   0.21478427 
Pd   1.43618257   1.12719177  -0.07875954 
O    3.14387240   1.22599844  -1.32921225 
O    2.64777156  -0.52465483  -0.16311898 
O    0.37168048   2.86123703   0.10771062 
C    0.03236766   2.98397233   1.28481449 
O    0.44410864   2.15983922   2.17560432 
H   -1.32528538   1.16052979   2.77543704 
C    3.36063824   0.03270163  -1.03536140 
H    4.23458419  -0.50538271  -1.43632933 
H   -0.68595613   3.75662563   1.58895734 
*
