! EnGrad PBEh-3c
%output 
xyzfile=True 
end 
%scf 
maxiter 250 
end
%output
Print[P_Hirshfeld] = 1
end
% maxcore
4000
*xyz 0 1
C   -1.57585846   0.19479624  -0.43481215 
C   -2.03149351  -0.85040300  -1.24031910 
C   -1.63372146  -2.15732545  -0.98521293 
C   -0.75763107  -2.40130028   0.06184299 
C   -0.71163280   0.00793379   0.69820356 
C   -0.31882018  -1.35389732   0.86910450 
H   -1.89528366   1.19693909  -0.68574142 
H   -2.67903258  -0.65471746  -2.08642937 
H   -2.00016152  -2.98080445  -1.59972433 
H    0.36758685  -1.58020210   1.67014322 
H   -0.40954276  -3.41020562   0.23900571 
Pd   1.27942472   0.99887939   0.00755558 
O    3.15035620   1.28717731  -1.27040146 
O    2.54274362  -0.52959465  -0.22656946 
O    0.36384257   2.73519981   0.15014055 
C   -0.00352847   2.92042928   1.34441723 
O    0.23555674   2.13009036   2.30105900 
H   -0.83384953   0.98976291   2.04878937 
C    3.34254227   0.09391296  -0.99211089 
H    4.20872481  -0.45875378  -1.38942087 
H   -0.64155273   3.80207282   1.50322223 
*
