! EnGrad PBEh-3c
%output 
xyzfile=True 
end 
%scf 
maxiter 250 
end
%output
Print[P_Hirshfeld] = 1
end
% maxcore
4000
*xyz 0 1
C   -1.56823295   0.19861791  -0.43008137 
C   -2.03043142  -0.84666395  -1.23243004 
C   -1.63430211  -2.15268698  -0.97972162 
C   -0.75879432  -2.39662520   0.06583054 
C   -0.71237246   0.01482478   0.71329326 
C   -0.31700346  -1.34983243   0.87374590 
H   -1.89390449   1.20163093  -0.67876466 
H   -2.67469939  -0.64973317  -2.07922861 
H   -1.98933197  -2.97225127  -1.59916492 
H    0.36916815  -1.57787410   1.67721711 
H   -0.40890930  -3.40340228   0.24396831 
Pd   1.27445722   0.98579569  -0.00404232 
O    3.13685056   1.28924325  -1.25136494 
O    2.53365307  -0.54418348  -0.23462323 
O    0.35357505   2.72147765   0.16759096 
C   -0.01722461   2.90639817   1.35936433 
O    0.17142148   2.12015576   2.31688039 
H   -0.72991954   0.97603906   1.92418556 
C    3.33256435   0.09216237  -0.98934668 
H    4.19913163  -0.45498268  -1.38311526 
H   -0.63646540   3.81908624   1.50013416 
*
