! EnGrad PBEh-3c
%output 
xyzfile=True 
end 
%scf 
maxiter 250 
end
%output
Print[P_Hirshfeld] = 1
end
% maxcore
4000
*xyz 0 1
C   -1.57162427   0.23061709  -0.37584140 
C   -1.99533003  -0.80451248  -1.20101719 
C   -1.60066898  -2.11549264  -0.95750281 
C   -0.73296049  -2.35542506   0.10182053 
C   -0.74043226  -0.01940590   0.71670274 
C   -0.32358300  -1.32577565   0.93450445 
H   -1.90156875   1.22270287  -0.63609750 
H   -2.64464878  -0.61235115  -2.05124779 
H   -1.93578735  -2.93234726  -1.60406975 
H    0.36382479  -1.57377539   1.72597807 
H   -0.38732927  -3.37106461   0.26321480 
Pd   1.26499976   0.96998768  -0.04019837 
O    3.06207597   1.27820365  -1.18334588 
O    2.48116719  -0.59719066  -0.27298440 
O    0.33282053   2.66971386   0.19963417 
C   -0.08187664   2.90282183   1.40185556 
O   -0.00186691   2.16336354   2.35815456 
H   -0.48027344   0.73746405   1.44029466 
C    3.30072108   0.07121255  -0.96821600 
H    4.17574641  -0.44424082  -1.38627798 
H   -0.57950849   3.87022187   1.50086435 
*
