! EnGrad PBEh-3c
%output 
xyzfile=True 
end 
%scf 
maxiter 250 
end
%output
Print[P_Hirshfeld] = 1
end
% maxcore
4000
*xyz 0 1
C   -1.58969450   0.19045557  -0.48547665 
C   -1.99238574  -0.85778454  -1.29926896 
C   -1.59140443  -2.15396067  -1.02517866 
C   -0.71305135  -2.40902449   0.01938825 
C   -0.80012014  -0.10459299   0.63584204 
C   -0.30784425  -1.39177055   0.87047172 
H   -1.97180966   1.16507777  -0.75013137 
H   -2.67977210  -0.67481966  -2.10946660 
H   -1.98660311  -2.96737722  -1.60865240 
H    0.37648212  -1.63887466   1.67045589 
H   -0.40011234  -3.41867544   0.21370962 
Pd   1.41771667   1.12141276  -0.05313745 
O    3.14090571   1.22839574  -1.33722977 
O    2.63032849  -0.52010729  -0.16442353 
O    0.38306716   2.85887604   0.06128150 
C    0.04246498   2.94587765   1.35046031 
O    0.42733156   2.18503356   2.15254282 
H   -1.30949908   1.14871010   2.74434952 
C    3.37748522   0.03685566  -1.02956286 
H    4.22973910  -0.50544854  -1.43999824 
H   -0.68318894   3.76126784   1.58291748 
*
