! EnGrad PBEh-3c
%output 
xyzfile=True 
end 
%scf 
maxiter 250 
end
%output
Print[P_Hirshfeld] = 1
end
% maxcore
4000
*xyz 0 1
C   -1.60143927   0.18704894  -0.48094657 
C   -1.99632949  -0.86272338  -1.30205634 
C   -1.59046246  -2.15819623  -1.02837206 
C   -0.71700109  -2.41625716   0.02010905 
C   -0.79020197  -0.07416161   0.65937006 
C   -0.31218381  -1.39223148   0.87105003 
H   -1.96557485   1.17044464  -0.73535790 
H   -2.67522166  -0.67136016  -2.11195524 
H   -1.98026865  -2.96672709  -1.61147880 
H    0.37100451  -1.62979172   1.67578312 
H   -0.39453448  -3.41976739   0.21286153 
Pd   1.39064701   1.11550353  -0.02163706 
O    3.13876853   1.22711847  -1.34655035 
O    2.61243208  -0.51208615  -0.17091171 
O    0.39164275   2.85115198   0.03949651 
C    0.03967589   2.94450149   1.34929032 
O    0.42976333   2.17614988   2.17161919 
H   -1.28743625   1.12588119   2.69384144 
C    3.38653218   0.04779299  -1.01599750 
H    4.22609082  -0.50720179  -1.44561141 
H   -0.67582666   3.76353114   1.57475406 
*
