! EnGrad PBEh-3c
%output 
xyzfile=True 
end 
%scf 
maxiter 250 
end
%output
Print[P_Hirshfeld] = 1
end
% maxcore
4000
*xyz 0 1
C   -1.60684923   0.18396665  -0.46945809 
C   -1.99798198  -0.86620683  -1.29991857 
C   -1.58958817  -2.15995723  -1.02805929 
C   -0.72177663  -2.41694343   0.02132610 
C   -0.78331395  -0.05373973   0.67516427 
C   -0.31840051  -1.38537152   0.87166665 
H   -1.95948637   1.17600369  -0.72265933 
H   -2.67328395  -0.66804986  -2.11599331 
H   -1.97705822  -2.96940122  -1.61542517 
H    0.36623624  -1.62175569   1.67998136 
H   -0.38941293  -3.42357655   0.21290013 
Pd   1.36657033   1.10876398   0.00255930 
O    3.13868051   1.22684804  -1.35218448 
O    2.59917986  -0.50479596  -0.17793257 
O    0.39401103   2.84092831   0.04527466 
C    0.04136875   2.94558109   1.32613535 
O    0.43099488   2.16857841   2.19044622 
H   -1.26211873   1.10080154   2.63742641 
C    3.38644575   0.05910021  -1.00337167 
H    4.22427976  -0.50795736  -1.44869254 
H   -0.66851415   3.76463221   1.56663910 
*
