! EnGrad PBEh-3c
%output 
xyzfile=True 
end 
%scf 
maxiter 250 
end
%output
Print[P_Hirshfeld] = 1
end
% maxcore
4000
*xyz 0 1
C   -1.60416623   0.18306622  -0.45462243 
C   -1.99837468  -0.86604589  -1.29263886 
C   -1.59102524  -2.15978786  -1.02428252 
C   -0.72606480  -2.41159200   0.02454522 
C   -0.77948102  -0.04835003   0.67808689 
C   -0.32396253  -1.37313356   0.87234982 
H   -1.95338526   1.17969841  -0.71552129 
H   -2.67483986  -0.66596485  -2.11937682 
H   -1.97930336  -2.97492592  -1.61831828 
H    0.36345985  -1.61626055   1.68044266 
H   -0.38739096  -3.42827539   0.21418989 
Pd   1.35132137   1.10062264   0.01236085 
O    3.14150924   1.23039889  -1.35105097 
O    2.59269821  -0.50085583  -0.18347299 
O    0.38854232   2.82947946   0.08049599 
C    0.04510917   2.95047387   1.28740835 
O    0.42856708   2.16355309   2.20479342 
H   -1.23476550   1.07933636   2.58327201 
C    3.37860340   0.06714666  -0.99658654 
H    4.22462163  -0.50572796  -1.44655205 
H   -0.66200249   3.76315044   1.55909645 
*
