! EnGrad PBEh-3c
%output 
xyzfile=True 
end 
%scf 
maxiter 250 
end
%output
Print[P_Hirshfeld] = 1
end
% maxcore
4000
*xyz 0 1
C   -1.59638988   0.18854512  -0.42845093 
C   -2.01325348  -0.85396742  -1.26527935 
C   -1.61180620  -2.16519172  -1.01123307 
C   -0.73793389  -2.40294714   0.04891015 
C   -0.75142422  -0.02435121   0.68412527 
C   -0.32886844  -1.35139792   0.87445226 
H   -1.92188136   1.18492127  -0.69560415 
H   -2.67948078  -0.66148785  -2.11459316 
H   -1.99577284  -2.98948452  -1.61561812 
H    0.35637299  -1.59455281   1.67020370 
H   -0.39379443  -3.42920776   0.22207470 
Pd   1.30904416   1.05295776   0.03122706 
O    3.15331754   1.26234224  -1.32847369 
O    2.56072321  -0.49902033  -0.19640982 
O    0.38573464   2.77994096   0.11320028 
C    0.03500503   2.93633865   1.32608539 
O    0.37365125   2.17819821   2.21055190 
H   -1.09418310   1.01585806   2.35822287 
C    3.36750338   0.08539769  -0.99556407 
H    4.22126164  -0.48366073  -1.42194465 
H   -0.63968686   3.75985605   1.52353612 
*
