! EnGrad PBEh-3c
%output 
xyzfile=True 
end 
%scf 
maxiter 250 
end
%output
Print[P_Hirshfeld] = 1
end
% maxcore
4000
*xyz 0 1
C   -1.58670933   0.19481867  -0.43213272 
C   -2.01872710  -0.84625726  -1.25538578 
C   -1.62179328  -2.16364703  -1.00345373 
C   -0.73956116  -2.39897918   0.05687817 
C   -0.74523821  -0.03373851   0.67170053 
C   -0.32300428  -1.35187206   0.87434315 
H   -1.91423546   1.18181379  -0.70031182 
H   -2.68280913  -0.66271931  -2.10581430 
H   -2.00597370  -2.99186042  -1.60932527 
H    0.35938613  -1.59339563   1.66196682 
H   -0.40292327  -3.42338073   0.22643877 
Pd   1.31615047   1.03796441   0.01049484 
O    3.15843863   1.27529681  -1.30894940 
O    2.56271349  -0.50791938  -0.19711885 
O    0.38115113   2.76769255   0.12009968 
C    0.02237519   2.93758093   1.35764884 
O    0.34700868   2.17983594   2.21065190 
H   -1.04882743   1.01459108   2.30794754 
C    3.35873809   0.08251731  -1.00775826 
H    4.22123465  -0.47269337  -1.40658576 
H   -0.63975310   3.76127534   1.51717922 
*
