21
Generated by autodE on: 2023-07-09. E = -42.078682 Ha
C    -1.84577   0.24744  -0.14815
C    -1.32905  -0.40843  -1.26173
C    -0.47095  -1.49068  -1.09293
C    -0.09496  -1.88997   0.18541
C    -1.47546  -0.15695   1.13162
C    -0.58264  -1.21185   1.29847
H    -2.56177   1.04674  -0.27900
H    -1.63545  -0.11173  -2.25468
H    -0.11919  -2.03714  -1.95677
H    -0.31135  -1.53832   2.29237
H     0.55108  -2.74627   0.31814
Pd    1.13632   0.96718  -0.02016
O     1.86815   0.24978  -1.78312
O     2.54623  -0.49963   0.12512
O    -0.02282   2.63998  -0.17297
C     0.05533   2.75654   1.06732
O     0.65466   1.88915   1.73546
H    -1.90558   0.32531   1.99849
C     2.62080  -0.49361  -1.12076
H     3.33958  -1.15242  -1.63501
H    -0.41717   3.61489   1.57286
