! EnGrad PBEh-3c
%output 
xyzfile=True 
end 
%scf 
maxiter 250 
end
%output
Print[P_Hirshfeld] = 1
end
% maxcore
4000
*xyz 0 1
C   -1.86345056   0.17048853  -0.15454914 
C   -1.71887764  -0.67323217  -1.24004510 
C   -1.04199365  -1.87554857  -1.12842878 
C   -0.44027962  -2.18213560   0.07916624 
C   -1.31382482  -0.19346957   1.05928848 
C   -0.56068639  -1.34438307   1.17151060 
H   -2.39662099   1.09600242  -0.30632823 
H   -2.15725749  -0.41207578  -2.18075242 
H   -1.00190423  -2.57541675  -1.97001166 
H   -0.04043616  -1.61407256   2.07649946 
H    0.09953920  -3.10189454   0.16971223 
Pd   1.47350361   1.27250244   0.08808623 
O    2.47339377   0.80303523  -1.65251605 
O    2.60635711  -0.41825719   0.11465128 
O    0.34179377   2.91886640  -0.06023150 
C    0.14974053   2.95855882   1.18303067 
O    0.67657603   2.06774900   1.89089092 
H   -1.48146761   0.38579193   1.90461893 
C    2.96701310  -0.19550841  -1.07057175 
H    3.69445975  -0.85128132  -1.57645249 
H   -0.46958989   3.76130898   1.60492151 
*
