! EnGrad PBEh-3c
%output 
xyzfile=True 
end 
%scf 
maxiter 250 
end
%output
Print[P_Hirshfeld] = 1
end
% maxcore
4000
*xyz 0 1
C   -1.86975316   0.16167381  -0.18937414 
C   -1.74741983  -0.69648848  -1.25915769 
C   -1.07714506  -1.89028678  -1.11766469 
C   -0.45713570  -2.21786381   0.06569788 
C   -1.29694795  -0.20954526   1.02414314 
C   -0.54771136  -1.37506068   1.15046032 
H   -2.39090532   1.12005711  -0.27956953 
H   -2.18891705  -0.40080713  -2.18116229 
H   -1.04297667  -2.56883829  -1.93011400 
H   -0.04330700  -1.59520569   2.09575988 
H    0.09531918  -3.11971483   0.18832096 
Pd   1.50001263   1.29457115   0.08891501 
O    2.47092169   0.81876820  -1.63365472 
O    2.62373402  -0.40619130   0.12994479 
O    0.36039260   2.93560174  -0.06815170 
C    0.15417907   2.94816576   1.17440034 
O    0.66998865   2.04288599   1.87624680 
H   -1.42743971   0.40567961   1.87415839 
C    2.96748911  -0.18175896  -1.05693145 
H    3.70588132  -0.81506788  -1.55838153 
H   -0.46412265   3.74987576   1.60863365 
*
