! EnGrad PBEh-3c
%output 
xyzfile=True 
end 
%scf 
maxiter 250 
end
%output
Print[P_Hirshfeld] = 1
end
% maxcore
4000
*xyz 0 1
C   -1.86723924   0.16266422  -0.18457484 
C   -1.77666675  -0.69535899  -1.26861642 
C   -1.10311407  -1.90525926  -1.11459157 
C   -0.46411563  -2.24202775   0.07630554 
C   -1.28615715  -0.20593559   1.01730262 
C   -0.55007629  -1.37121754   1.14933822 
H   -2.38001077   1.11725446  -0.26231404 
H   -2.22423655  -0.39989029  -2.21591693 
H   -1.07128465  -2.59146566  -1.93563859 
H   -0.05506198  -1.58305369   2.09161587 
H    0.10332877  -3.16492981   0.18935213 
Pd   1.51258168   1.30948487   0.09624536 
O    2.46398555   0.82695430  -1.62370292 
O    2.64084066  -0.39137850   0.14779293 
O    0.38082630   2.95744342  -0.07168303 
C    0.15888470   2.94565013   1.16846693 
O    0.66633311   2.02659250   1.85207798 
H   -1.38566122   0.43516311   1.86661631 
C    2.97427371  -0.16611822  -1.04195292 
H    3.71409957  -0.79309319  -1.55015566 
H   -0.45825988   3.73404217   1.61471761 
*
