! EnGrad PBEh-3c
%output 
xyzfile=True 
end 
%scf 
maxiter 250 
end
%output
Print[P_Hirshfeld] = 1
end
% maxcore
4000
*xyz 0 1
C   -1.86603143   0.16395810  -0.17813754 
C   -1.78166441  -0.69189175  -1.26482646 
C   -1.10778741  -1.90874330  -1.11535790 
C   -0.46633926  -2.24153511   0.08268039 
C   -1.28308832  -0.20203986   1.01865668 
C   -0.55399833  -1.36610718   1.15221319 
H   -2.37580269   1.11097774  -0.26235485 
H   -2.23088239  -0.40655525  -2.22369838 
H   -1.07742149  -2.60563835  -1.94794569 
H   -0.05798948  -1.58267137   2.08448267 
H    0.10089282  -3.17488390   0.18359198 
Pd   1.51218470   1.31124034   0.09905970 
O    2.46241526   0.82696606  -1.62242344 
O    2.64465382  -0.38595300   0.15197179 
O    0.38633502   2.96466906  -0.07202963 
C    0.16014985   2.94788777   1.16800085 
O    0.66663594   2.02452597   1.84595257 
H   -1.37751734   0.44582567   1.87141041 
C    2.98002583  -0.16152597  -1.03834105 
H    3.71668074  -0.79126071  -1.55066859 
H   -0.45810624   3.73010275   1.61719257 
*
