! EnGrad PBEh-3c
%output 
xyzfile=True 
end 
%scf 
maxiter 250 
end
%output
Print[P_Hirshfeld] = 1
end
% maxcore
4000
*xyz 0 1
C   -1.84924180   0.16366672  -0.17738869 
C   -1.65883549  -0.66853994  -1.29409418 
C   -0.96234404  -1.85286977  -1.16652476 
C   -0.38514163  -2.18645945   0.04282807 
C   -1.36142184  -0.13694368   1.17224535 
C   -0.54814955  -1.35234269   1.16346759 
H   -2.43171699   1.05636605  -0.32292097 
H   -2.11295963  -0.41208800  -2.24225736 
H   -0.88692658  -2.52803944  -2.00913209 
H   -0.05993075  -1.64087187   2.08054963 
H    0.15888210  -3.11405621   0.13758650 
Pd   1.40875932   1.22811978   0.06325193 
O    2.45327970   0.75586754  -1.68843548 
O    2.60592222  -0.43309778   0.10085974 
O    0.32192402   2.91543048  -0.07530230 
C    0.15784037   2.96999738   1.20601542 
O    0.69129808   2.11534827   1.90335075 
H   -1.64272513   0.50122783   2.18944138 
C    2.94602981  -0.24160655  -1.09676360 
H    3.63597137  -0.91978085  -1.60595234 
H   -0.48050838   3.77784642   1.61931992 
*
