! EnGrad PBEh-3c
%output 
xyzfile=True 
end 
%scf 
maxiter 250 
end
%output
Print[P_Hirshfeld] = 1
end
% maxcore
4000
*xyz 0 1
C   -1.84511950   0.16548358  -0.15450715 
C   -1.66938511  -0.67214053  -1.28491538 
C   -0.97911088  -1.86580072  -1.16693222 
C   -0.39596075  -2.18528006   0.04634034 
C   -1.36334152  -0.10854826   1.20563977 
C   -0.55948559  -1.33262589   1.16831008 
H   -2.42273434   1.06459364  -0.32686557 
H   -2.12671846  -0.41614669  -2.24028705 
H   -0.91589172  -2.54518027  -2.00551023 
H   -0.04978780  -1.63894254   2.07522906 
H    0.14702841  -3.12352247   0.13945615 
Pd   1.41503204   1.24005309   0.08096916 
O    2.46292010   0.76332858  -1.68268383 
O    2.59961123  -0.43123533   0.09822708 
O    0.32469867   2.91266184  -0.06926364 
C    0.15279649   2.97196591   1.19434413 
O    0.69251177   2.10185507   1.90664463 
H   -1.60044592   0.45362316   2.09603990 
C    2.96005856  -0.22518202  -1.09095235 
H    3.65349081  -0.90971072  -1.60406760 
H   -0.48050536   3.77681663   1.61514597 
*
