! EnGrad PBEh-3c
%output 
xyzfile=True 
end 
%scf 
maxiter 250 
end
%output
Print[P_Hirshfeld] = 1
end
% maxcore
4000
*xyz 0 1
C   -1.84177506   0.16709879  -0.12507458 
C   -1.67744604  -0.66892591  -1.26733939 
C   -0.99025106  -1.87323972  -1.16586124 
C   -0.40676505  -2.17552222   0.05736788 
C   -1.35267694  -0.12742049   1.17332799 
C   -0.57411695  -1.30959652   1.17695062 
H   -2.41767799   1.07067621  -0.32902149 
H   -2.13455492  -0.41723554  -2.23569440 
H   -0.93389454  -2.55612110  -2.00346182 
H   -0.04420689  -1.63804950   2.07242095 
H    0.13945883  -3.12658987   0.14248334 
Pd   1.42438749   1.24669429   0.08606634 
O    2.46738313   0.76932287  -1.67766230 
O    2.59792870  -0.42971681   0.09926514 
O    0.32639208   2.91129431  -0.05645654 
C    0.14827670   2.97622941   1.17837252 
O    0.69296823   2.09106849   1.90891717 
H   -1.57364195   0.42805730   2.04167228 
C    2.96275439  -0.21428136  -1.08614089 
H    3.66471482  -0.90163430  -1.60142586 
H   -0.47815046   3.77361917   1.61203438 
*
