! EnGrad PBEh-3c
%output 
xyzfile=True 
end 
%scf 
maxiter 250 
end
%output
Print[P_Hirshfeld] = 1
end
% maxcore
4000
*xyz 0 1
C   -1.84330916   0.16904794  -0.11619032 
C   -1.68405701  -0.66611710  -1.25342539 
C   -0.99940107  -1.87491337  -1.16076832 
C   -0.41501162  -2.16868362   0.06684781 
C   -1.34284265  -0.14798265   1.13984394 
C   -0.57821652  -1.30420346   1.18104511 
H   -2.41280642   1.07375681  -0.32785717 
H   -2.13921468  -0.41729621  -2.22797487 
H   -0.94697280  -2.56386084  -2.00163953 
H   -0.04239843  -1.63519126   2.06989672 
H    0.13233953  -3.12451384   0.14617287 
Pd   1.43322844   1.25092902   0.08836219 
O    2.46896807   0.77640672  -1.67425943 
O    2.59751006  -0.42804649   0.10181028 
O    0.32849593   2.91147016  -0.05589868 
C    0.14812983   2.97281813   1.18094425 
O    0.68937440   2.08854800   1.90441358 
H   -1.55577024   0.41612251   2.01119556 
C    2.96518925  -0.21024178  -1.08308187 
H    3.67166630  -0.89360331  -1.59787935 
H   -0.47630761   3.77122886   1.60955490 
*
