! EnGrad PBEh-3c
%output 
xyzfile=True 
end 
%scf 
maxiter 250 
end
%output
Print[P_Hirshfeld] = 1
end
% maxcore
4000
*xyz 0 1
C   -1.86985187   0.17552432  -0.16186502 
C   -1.71471225  -0.65745343  -1.21526246 
C   -1.03608974  -1.86476779  -1.12240729 
C   -0.44228978  -2.15955904   0.09935952 
C   -1.30284509  -0.24044532   0.99458714 
C   -0.55455985  -1.35382336   1.17681837 
H   -2.39439456   1.08452490  -0.30725911 
H   -2.14902128  -0.41224117  -2.17434008 
H   -0.99184771  -2.57958861  -1.98256344 
H   -0.04667468  -1.61412175   2.06756845 
H    0.09945694  -3.09170980   0.16886044 
Pd   1.47555290   1.26378440   0.07782816 
O    2.47017729   0.80494321  -1.65572431 
O    2.60685743  -0.41987137   0.11716964 
O    0.33952605   2.91777828  -0.06406829 
C    0.15129225   2.95500055   1.20122533 
O    0.67140760   2.08109286   1.88420703 
H   -1.49906637   0.40666008   1.94537131 
C    2.96082863  -0.20381618  -1.07316609 
H    3.69019238  -0.85497289  -1.57693173 
H   -0.46798468   3.76025663   1.60336118 
*
