! EnGrad PBEh-3c
%output 
xyzfile=True 
end 
%scf 
maxiter 250 
end
%output
Print[P_Hirshfeld] = 1
end
% maxcore
4000
*xyz 0 1
C   -1.86318402   0.17315832  -0.15327249 
C   -1.70985985  -0.66673248  -1.23683929 
C   -1.03021944  -1.86964989  -1.13148763 
C   -0.43445110  -2.17346531   0.08227642 
C   -1.31635990  -0.19980402   1.05470449 
C   -0.55958992  -1.34302996   1.17566208 
H   -2.39927963   1.08646572  -0.31072325 
H   -2.14906190  -0.41327541  -2.18639495 
H   -0.98541752  -2.57385040  -1.98147344 
H   -0.04377972  -1.61824726   2.07188717 
H    0.10589444  -3.10055914   0.16454172 
Pd   1.46550018   1.26411899   0.08313938 
O    2.47117610   0.79773222  -1.65833401 
O    2.60503179  -0.42109987   0.11278805 
O    0.33794745   2.91681778  -0.06087539 
C    0.14952061   2.96135362   1.18885590 
O    0.67790098   2.07667984   1.89242772 
H   -1.50557619   0.40138974   1.94560463 
C    2.96349277  -0.20244892  -1.07463044 
H    3.68732664  -0.86186259  -1.58108301 
H   -0.47048923   3.76314740   1.60551772 
*
