! EnGrad PBEh-3c
%output 
xyzfile=True 
end 
%scf 
maxiter 250 
end
%output
Print[P_Hirshfeld] = 1
end
% maxcore
4000
*xyz 0 1
Lu   0.12349017   0.25024094  -0.15177212 
C    0.27990940   1.01533151   2.31640000 
C    1.24256128  -0.00839404   2.16968065 
C    2.24251540   0.43574191   1.28277730 
C    1.93491589   1.76528553   0.92857527 
C    0.71482714   2.11120525   1.55092974 
H    2.52073243   2.40533467   0.28398434 
H    0.24104579   3.08126019   1.53771121 
H   -0.57243390   1.01055738   2.97908321 
H    1.25431078  -0.94219292   2.71268264 
H    3.12449341  -0.11353691   0.99002419 
C    1.04465320  -0.04588808  -2.57334951 
C   -0.27821568  -0.53569460  -2.59446088 
C    0.96396050  -1.91164207  -1.27713994 
C    1.80947846  -0.88591367  -1.74104549 
H    1.40660705   0.82489134  -3.10183538 
C   -0.32550837  -1.70590988  -1.81899915 
H   -1.08426850  -0.16857571  -3.21050992 
H    2.86578232  -0.78914958  -1.54004843 
H    1.28174834  -2.75637390  -0.68243121 
H   -1.18582044  -2.35366516  -1.72422320 
C   -2.31462218  -1.65992528   1.37679392 
H   -2.47726965  -1.43615871   2.42750437 
H   -2.97966358  -2.44357404   1.02114396 
H   -2.43210196  -0.77631981   0.76810251 
C   -1.87954393   1.70702199  -0.68181649 
H   -0.97738897  -1.99240700   1.22556415 
H   -1.50143962   2.52281149  -1.31059263 
H   -2.41708266   2.20657826   0.13029437 
H   -2.62568213   1.18906119  -1.29302520 
*
