! EnGrad PBEh-3c
%output 
xyzfile=True 
end 
%scf 
maxiter 250 
end
%output
Print[P_Hirshfeld] = 1
end
% maxcore
4000
*xyz 0 1
Lu   0.08560361   0.29268957  -0.16910407 
C    0.30141595   1.01481260   2.32536375 
C    1.24496646  -0.01884974   2.17234945 
C    2.24817911   0.44290950   1.29333093 
C    1.92190856   1.76418876   0.92021695 
C    0.71871382   2.11810475   1.56027465 
H    2.51722546   2.40829465   0.28460877 
H    0.23498751   3.07534950   1.53446253 
H   -0.56635241   1.00287265   2.98562716 
H    1.26011763  -0.94882460   2.70706788 
H    3.12765348  -0.11038290   0.98735455 
C    1.03862226  -0.03878912  -2.56439768 
C   -0.27765421  -0.54581570  -2.60936334 
C    0.96871311  -1.92315786  -1.27302472 
C    1.80833791  -0.88585508  -1.74766109 
H    1.40113675   0.82483230  -3.10196003 
C   -0.31504285  -1.70804030  -1.81899000 
H   -1.08839781  -0.16724344  -3.20159425 
H    2.86619574  -0.78642161  -1.54076490 
H    1.28485287  -2.75622772  -0.67950379 
H   -1.17802127  -2.36219420  -1.72172438 
C   -2.17264599  -1.68355522   1.35997529 
H   -2.47846065  -1.43362186   2.42404260 
H   -2.96468243  -2.45539066   1.02490463 
H   -2.46466572  -0.76218260   0.76104666 
C   -1.84454087   1.68376037  -0.67652074 
H   -1.14793602  -1.94985377   1.23922694 
H   -1.49522954   2.52292523  -1.31330270 
H   -2.41537940   2.20333361   0.13025126 
H   -2.62358185   1.19136910  -1.29662624 
*
