! EnGrad PBEh-3c
%output 
xyzfile=True 
end 
%scf 
maxiter 250 
end
%output
Print[P_Hirshfeld] = 1
end
% maxcore
4000
*xyz 0 1
Lu   0.03510322   0.35162358  -0.19401795 
C    0.31184060   1.01818843   2.34398708 
C    1.25150604  -0.02445600   2.16645868 
C    2.25320515   0.44858203   1.30522767 
C    1.91159572   1.76159671   0.90495701 
C    0.72413068   2.12046588   1.57371234 
H    2.51247993   2.40968377   0.28569525 
H    0.22492322   3.07381060   1.52714118 
H   -0.55460942   0.99360747   2.98519200 
H    1.26347941  -0.96343141   2.70208774 
H    3.12808289  -0.10533553   0.98576679 
C    1.03004845  -0.02856682  -2.55427891 
C   -0.27079437  -0.56072506  -2.62405015 
C    0.97532751  -1.91961414  -1.27629307 
C    1.80678101  -0.89139389  -1.74830033 
H    1.39604456   0.82599155  -3.10213491 
C   -0.31235078  -1.71401463  -1.81808510 
H   -1.09698881  -0.16085718  -3.19301668 
H    2.86382924  -0.78312079  -1.54157106 
H    1.28894908  -2.76264100  -0.67008172 
H   -1.16564273  -2.36702477  -1.71625009 
C   -2.12333628  -1.68214753   1.34769750 
H   -2.45636523  -1.43982296   2.39067552 
H   -2.90243232  -2.44624124   1.03727067 
H   -2.48209314  -0.77064491   0.76862377 
C   -1.81199954   1.66202108  -0.67007799 
H   -1.30903245  -1.92226555   1.25518168 
H   -1.48877634   2.51663590  -1.31331686 
H   -2.40106170   2.18820259   0.12396034 
H   -2.61193297   1.19552878  -1.29414467 
*
