! EnGrad PBEh-3c
%output 
xyzfile=True 
end 
%scf 
maxiter 250 
end
%output
Print[P_Hirshfeld] = 1
end
% maxcore
4000
*xyz 0 1
Lu   0.04585768   0.35013684  -0.19487771 
C    0.30770425   1.01787660   2.34415240 
C    1.25303196  -0.02111103   2.16562089 
C    2.25265912   0.44746290   1.29741473 
C    1.91523322   1.75922270   0.90573260 
C    0.72162985   2.11744404   1.57614629 
H    2.51127856   2.41028703   0.28415818 
H    0.22224677   3.07506359   1.52667235 
H   -0.55275217   0.99152171   2.98715021 
H    1.26382049  -0.96623431   2.69910214 
H    3.12670411  -0.10261018   0.98577089 
C    1.03166135  -0.03053684  -2.55485915 
C   -0.27360072  -0.56152831  -2.62078677 
C    0.97628774  -1.91635531  -1.27606781 
C    1.80763129  -0.88788347  -1.74372734 
H    1.39522768   0.82775628  -3.10218696 
C   -0.31514471  -1.71418386  -1.81858382 
H   -1.09846988  -0.16069893  -3.19222649 
H    2.86179733  -0.78181375  -1.54167416 
H    1.28928438  -2.76112714  -0.66901334 
H   -1.16400073  -2.36909521  -1.71412426 
C   -2.31404498  -1.62965445   1.36280296 
H   -2.44353514  -1.44070269   2.38628966 
H   -2.88115097  -2.44421368   1.03816292 
H   -2.47586079  -0.77876954   0.77121950 
C   -1.83090379   1.67648600  -0.67594321 
H   -1.16894277  -1.96187300   1.23855167 
H   -1.48636819   2.50924978  -1.30921438 
H   -2.38850034   2.17828326   0.11869213 
H   -2.60052261   1.19641317  -1.28944145 
*
