! EnGrad PBEh-3c
%output 
xyzfile=True 
end 
%scf 
maxiter 250 
end
%output
Print[P_Hirshfeld] = 1
end
% maxcore
4000
*xyz 0 1
Lu   0.04453685   0.35659041  -0.19830160 
C    0.31070568   1.01725257   2.34417797 
C    1.25300780  -0.02243943   2.16626899 
C    2.25209594   0.44790898   1.29606454 
C    1.91339428   1.75887440   0.90496189 
C    0.72147577   2.11876278   1.57736174 
H    2.51050845   2.41076689   0.28337100 
H    0.22062463   3.07419261   1.52528588 
H   -0.55283223   0.98954257   2.98904067 
H    1.26398846  -0.96755805   2.69584528 
H    3.12688110  -0.10165027   0.98531774 
C    1.03117471  -0.02990905  -2.55379076 
C   -0.27481827  -0.56226160  -2.62231872 
C    0.97639352  -1.91793396  -1.27419615 
C    1.80701390  -0.88564482  -1.74310031 
H    1.39426053   0.82836104  -3.10205507 
C   -0.31345214  -1.71374864  -1.81844658 
H   -1.09935775  -0.15984282  -3.19035150 
H    2.86148298  -0.78087446  -1.54133263 
H    1.28912941  -2.75943785  -0.66834914 
H   -1.16306106  -2.37108610  -1.71206315 
C   -2.28531424  -1.63397499   1.35916356 
H   -2.44361332  -1.43729992   2.39633414 
H   -2.88190356  -2.45556369   1.03438470 
H   -2.48418326  -0.76713771   0.76413018 
C   -1.82917054   1.67617187  -0.67755023 
H   -1.19725001  -1.95592842   1.24089038 
H   -1.48406085   2.50737877  -1.30897362 
H   -2.38390161   2.17434687   0.11963983 
H   -2.59717486   1.19560907  -1.28908864 
*
