! EnGrad PBEh-3c
%output 
xyzfile=True 
end 
%scf 
maxiter 250 
end
%output
Print[P_Hirshfeld] = 1
end
% maxcore
4000
*xyz 0 1
Lu   0.05251842   0.36978099  -0.20714219 
C    0.31197814   1.01414396   2.34681364 
C    1.25572269  -0.02384335   2.16462849 
C    2.24683061   0.44629235   1.28909210 
C    1.90925548   1.76200761   0.90342179 
C    0.72143884   2.12060785   1.57861340 
H    2.50647872   2.41159545   0.28037294 
H    0.21440992   3.07166523   1.52154022 
H   -0.55022855   0.98218175   2.99473343 
H    1.26430367  -0.97283217   2.68316048 
H    3.12819060  -0.09805151   0.98258750 
C    1.02778338  -0.02826290  -2.55399985 
C   -0.27604654  -0.56203371  -2.62206007 
C    0.97617866  -1.91400655  -1.27099728 
C    1.80351092  -0.87954363  -1.73692364 
H    1.39052614   0.83046200  -3.10086396 
C   -0.31175331  -1.71593943  -1.81661221 
H   -1.10381751  -0.15731576  -3.18506369 
H    2.86087701  -0.77621141  -1.53961661 
H    1.28933765  -2.75439066  -0.66417244 
H   -1.15836085  -2.37712614  -1.70413003 
C   -2.21785149  -1.64578332   1.34846661 
H   -2.44429489  -1.42595564   2.41728380 
H   -2.87915923  -2.47968031   1.02653282 
H   -2.51208893  -0.74165752   0.74907981 
C   -1.82287466   1.67615800  -0.68428954 
H   -1.27253361  -1.93586276   1.24514830 
H   -1.47355905   2.50486753  -1.31102101 
H   -2.36845934   2.16235672   0.12889313 
H   -2.58839312   1.18872375  -1.29182181 
*
