! EnGrad PBEh-3c
%output 
xyzfile=True 
end 
%scf 
maxiter 250 
end
%output
Print[P_Hirshfeld] = 1
end
% maxcore
4000
*xyz 0 1
Lu   0.07699386   0.36196484  -0.20791298 
C    0.30785808   1.01245975   2.33969911 
C    1.25122567  -0.02216696   2.16093180 
C    2.24128418   0.44514251   1.27645682 
C    1.90975620   1.76396179   0.90630473 
C    0.71610620   2.11959990   1.57590434 
H    2.50418271   2.41171661   0.27561515 
H    0.21108597   3.07074427   1.51787788 
H   -0.55354302   0.97771672   2.99715657 
H    1.25980688  -0.97530794   2.66901317 
H    3.12671053  -0.09650318   0.97967215 
C    1.02824038  -0.02948018  -2.55698642 
C   -0.28162124  -0.55691013  -2.61555919 
C    0.97196658  -1.90862444  -1.26436980 
C    1.80208643  -0.86935414  -1.73141978 
H    1.38913125   0.83326664  -3.09969193 
C   -0.31324510  -1.71198336  -1.81453603 
H   -1.10509624  -0.15451510  -3.18213246 
H    2.85895338  -0.77142136  -1.53566317 
H    1.28632369  -2.74513144  -0.66073030 
H   -1.15881715  -2.37837033  -1.69462793 
C   -2.28362294  -1.62367745   1.35782898 
H   -2.44145586  -1.41891656   2.42169029 
H   -2.87966346  -2.48771117   1.02036086 
H   -2.51717734  -0.73693797   0.74614922 
C   -1.81945181   1.67646760  -0.68908068 
H   -1.21435075  -1.94992226   1.23615322 
H   -1.46482151   2.50907449  -1.31670118 
H   -2.35271437   2.15170979   0.14377882 
H   -2.58423669   1.17702112  -1.29634939 
*
