38
Generated by autodE on: 2023-07-07. E = -61.376826 Ha
Pd    0.67180   0.20920  -0.44722
O     2.14744   1.27016   0.50841
C     1.29283   2.13827   0.81177
O     0.09773   1.98533   0.44494
C     1.69316   3.35311   1.60980
H     0.85722   3.68317   2.22029
H     1.95960   4.15221   0.92017
H     2.55669   3.12144   2.22647
N    -1.14634  -0.55208  -1.19975
C    -1.04782  -1.32042  -2.43979
H    -0.55266  -0.71401  -3.19872
H    -2.04370  -1.61156  -2.79759
H    -0.44966  -2.21542  -2.27546
C    -1.92740   0.66007  -1.45924
H    -2.04030   1.23514  -0.53960
H    -2.92126   0.40562  -1.85318
H    -1.39769   1.27465  -2.19289
C    -1.44393  -0.81749   1.21883
C    -0.18745  -1.11629   1.76854
C     0.19093  -0.54447   2.97529
C    -0.66825   0.32171   3.63629
C    -1.91710   0.59446   3.10989
C    -2.30355   0.02774   1.90400
H    -0.36409   0.77609   4.56763
H    -2.59171   1.25808   3.62982
H     0.46016  -1.85394   1.28997
H     1.15700  -0.77716   3.39894
H    -3.28019   0.25029   1.49750
C    -1.78666  -1.36929  -0.14411
H    -2.87416  -1.39417  -0.29911
H    -1.39394  -2.38699  -0.22552
O     1.71387  -1.39387  -1.17926
C     2.16613  -0.94768  -2.28448
O     1.76686   0.10641  -2.79132
C     3.20691  -1.80460  -2.98450
H     3.02752  -2.85563  -2.77668
H     4.18736  -1.53619  -2.59739
H     3.18468  -1.61188  -4.05273
