! EnGrad PBEh-3c
%output 
xyzfile=True 
end 
%scf 
maxiter 250 
end
%output
Print[P_Hirshfeld] = 1
end
% maxcore
4000
*xyz 0 1
Pd   0.66654971   0.59839537  -0.56429788 
O    2.29027183   1.62161492   0.28615512 
C    1.71680467   2.72722464   0.25476349 
O    0.48818128   2.75217621  -0.06391109 
C    2.43366782   4.00078174   0.54650676 
H    1.78205605   4.71864839   1.03958242 
H    2.76903010   4.43638365  -0.39635032 
H    3.31164960   3.81694099   1.16042144 
N   -1.16518603  -0.24462044  -1.14232974 
C   -1.25261153  -0.81224283  -2.50513629 
H   -0.95004618  -0.08598587  -3.25680032 
H   -2.27282185  -1.13684468  -2.74596922 
H   -0.61835124  -1.68345007  -2.61849808 
C   -2.10133077   0.88984255  -1.16795501 
H   -2.06686543   1.43023251  -0.23177068 
H   -3.13025635   0.56707546  -1.35628102 
H   -1.82066102   1.61418405  -1.93147311 
C   -1.41873060  -0.94018149   1.27615855 
C   -0.36581623  -1.56759614   1.95456867 
C   -0.22800982  -1.49387330   3.33393849 
C   -1.19199954  -0.83018127   4.07489887 
C   -2.37259942  -0.48069935   3.42775916 
C   -2.37765596  -0.25845299   2.04443070 
H   -1.10278091  -0.79242984   5.15376982 
H   -3.21290076  -0.27323819   4.08258748 
H    0.35975712  -2.18838402   1.44206091 
H    0.61650653  -1.95087601   3.83428080 
H   -3.77423060   0.80919612   1.76450947 
C   -1.60911543  -1.28174986  -0.18244135 
H   -2.67907162  -1.49431522  -0.30676208 
H   -1.08760291  -2.20585761  -0.44047396 
O    1.71237149  -1.00274061  -1.06722320 
C    2.27687776  -0.89746724  -2.23281073 
O    1.98305818  -0.05317008  -3.05874440 
C    3.37574897  -1.88734201  -2.55152139 
H    3.07046438  -2.90847734  -2.32809526 
H    4.25072124  -1.66881989  -1.93598033 
H    3.69492493  -1.84370024  -3.59154924 
*
