! EnGrad PBEh-3c
%output 
xyzfile=True 
end 
%scf 
maxiter 250 
end
%output
Print[P_Hirshfeld] = 1
end
% maxcore
4000
*xyz 0 1
Pd   0.68829073   0.57374822  -0.55818161 
O    2.25533092   1.57252292   0.25016279 
C    1.65248951   2.69647154   0.25992253 
O    0.44156646   2.68399242  -0.04422676 
C    2.43772039   3.93002198   0.55670955 
H    1.83108576   4.69412581   1.03949136 
H    2.79555600   4.36683616  -0.38056334 
H    3.32196333   3.74310977   1.16833312 
N   -1.18481001  -0.27646535  -1.15544531 
C   -1.24582061  -0.94228004  -2.49382288 
H   -0.92489866  -0.24109309  -3.27313624 
H   -2.28359459  -1.26261710  -2.71893130 
H   -0.59235558  -1.81822977  -2.53149415 
C   -2.13125589   0.85317620  -1.23248834 
H   -2.13126481   1.41146206  -0.29619955 
H   -3.15821645   0.50033403  -1.43075271 
H   -1.83074853   1.51287217  -2.05134503 
C   -1.56907943  -0.82699643   1.33439062 
C   -0.51739362  -1.56266257   1.96273964 
C   -0.29859060  -1.52948667   3.33111297 
C   -1.28037993  -0.89763260   4.08143237 
C   -2.35706743  -0.25742218   3.46250547 
C   -2.39572543  -0.02060921   2.09982796 
H   -1.17606630  -0.84289401   5.16093876 
H   -3.22043146  -0.00490980   4.08651514 
H    0.16826090  -2.22881291   1.40740892 
H    0.55823728  -2.02713427   3.83160443 
H   -2.77846762   0.65812878   1.90765287 
C   -1.68490003  -1.22677133  -0.13445251 
H   -2.74199018  -1.45013044  -0.32871451 
H   -1.16712409  -2.17909491  -0.33411207 
O    1.74564783  -1.00535275  -1.10603429 
C    2.26915705  -0.83987603  -2.28325208 
O    1.89823967   0.00085084  -3.08225415 
C    3.42270907  -1.76888562  -2.57879550 
H    3.18161085  -2.81638153  -2.37650878 
H    4.28627237  -1.52397724  -1.94895296 
H    3.72329277  -1.66956787  -3.61888388 
*
