! EnGrad PBEh-3c
%output 
xyzfile=True 
end 
%scf 
maxiter 250 
end
%output
Print[P_Hirshfeld] = 1
end
% maxcore
4000
*xyz 0 1
Pd   0.69391803   0.58239283  -0.55607853 
O    2.26155277   1.57576690   0.25141319 
C    1.65956915   2.69782429   0.25898370 
O    0.44391414   2.69358966  -0.04778235 
C    2.43800439   3.94399930   0.55544701 
H    1.82258147   4.69792238   1.03947416 
H    2.79084219   4.37803469  -0.38314272 
H    3.31993899   3.75441014   1.16717536 
N   -1.18788542  -0.26831598  -1.16167420 
C   -1.24518181  -0.92286564  -2.49787109 
H   -0.92859052  -0.21648526  -3.26825694 
H   -2.28003400  -1.24078295  -2.72089833 
H   -0.59534427  -1.79607588  -2.54445971 
C   -2.12698732   0.86255108  -1.22055090 
H   -2.12165057   1.41527939  -0.28435931 
H   -3.15197041   0.51087322  -1.41801261 
H   -1.82893623   1.52817522  -2.03178592 
C   -1.53668658  -0.85046891   1.32158705 
C   -0.49281682  -1.56614737   1.96284600 
C   -0.28486411  -1.51846442   3.33279083 
C   -1.26879733  -0.89587430   4.08060564 
C   -2.35589227  -0.28436461   3.46476654 
C   -2.37769420  -0.09793827   2.11025542 
H   -1.16650623  -0.83576080   5.15885712 
H   -3.21805652  -0.04424933   4.08207564 
H    0.19635544  -2.21867247   1.41014018 
H    0.56518433  -2.01232670   3.82845358 
H   -2.95563378   0.70820241   1.86933231 
C   -1.67398735  -1.23316939  -0.14250104 
H   -2.73165412  -1.45591990  -0.32816896 
H   -1.15340016  -2.18092136  -0.34815818 
O    1.73898644  -1.00903265  -1.09838717 
C    2.26941304  -0.84678198  -2.27725092 
O    1.91091995  -0.00589577  -3.07981522 
C    3.41700711  -1.79091071  -2.57234242 
H    3.16355734  -2.83167885  -2.36790879 
H    4.27967565  -1.54775905  -1.94654356 
H    3.71736158  -1.69720346  -3.61400389 
*
