! EnGrad PBEh-3c
%output 
xyzfile=True 
end 
%scf 
maxiter 250 
end
%output
Print[P_Hirshfeld] = 1
end
% maxcore
4000
*xyz 0 1
Pd   0.68693032   0.56207991  -0.56101102 
O    2.25859886   1.54661333   0.21825695 
C    1.63544095   2.65959942   0.25713108 
O    0.40414520   2.65135154  -0.02702515 
C    2.43706349   3.91256060   0.56086363 
H    1.84689798   4.67976659   1.04114107 
H    2.80286880   4.32574260  -0.37393999 
H    3.31279823   3.69556858   1.16735720 
N   -1.21222030  -0.27958568  -1.17334074 
C   -1.23534594  -0.99450020  -2.47485274 
H   -0.91128074  -0.32317195  -3.26788542 
H   -2.26651159  -1.31734799  -2.69897213 
H   -0.58707873  -1.86407897  -2.48080561 
C   -2.14172717   0.84274467  -1.26307502 
H   -2.16064949   1.40601843  -0.33850652 
H   -3.15840195   0.47269029  -1.46439162 
H   -1.84163429   1.47584023  -2.09227465 
C   -1.50183746  -0.86179383   1.31231830 
C   -0.56668693  -1.58439407   1.97490261 
C   -0.36051094  -1.54411127   3.33667412 
C   -1.31405005  -0.91124934   4.11361023 
C   -2.32272768  -0.20125269   3.55978398 
C   -2.19153683  -0.11755254   2.20952801 
H   -1.22568510  -0.89005154   5.17274366 
H   -3.19040132   0.18498888   4.09060575 
H    0.04197572  -2.20948624   1.38245572 
H    0.49589417  -2.03933874   3.79616784 
H   -2.59113631   0.76954038   1.80971178 
C   -1.73038338  -1.19273461  -0.11489102 
H   -2.77679267  -1.41894231  -0.35194408 
H   -1.20405686  -2.14077898  -0.25874072 
O    1.74598734  -1.01271160  -1.11230976 
C    2.26309264  -0.81177746  -2.30008816 
O    1.86405875   0.02122182  -3.09542792 
C    3.45047674  -1.72027617  -2.59217327 
H    3.22870286  -2.76347090  -2.39860576 
H    4.28989112  -1.45411718  -1.95777842 
H    3.73848007  -1.59112461  -3.63494693 
*
