! EnGrad PBEh-3c
%output 
xyzfile=True 
end 
%scf 
maxiter 250 
end
%output
Print[P_Hirshfeld] = 1
end
% maxcore
4000
*xyz 0 1
Pd   0.68329195   0.55489276  -0.56301728 
O    2.25761010   1.53313544   0.19905959 
C    1.62617986   2.64188433   0.25583166 
O    0.39073143   2.63183492  -0.01449366 
C    2.43321276   3.89560015   0.56194116 
H    1.85368221   4.67239692   1.04334120 
H    2.80788200   4.30223506  -0.37315227 
H    3.30732250   3.66621599   1.16760267 
N   -1.22471099  -0.28350196  -1.17906416 
C   -1.23208381  -1.02291038  -2.46251346 
H   -0.90261909  -0.37084029  -3.26418436 
H   -2.25569370  -1.35021791  -2.68704062 
H   -0.58352815  -1.89137959  -2.44862821 
C   -2.15029901   0.83601107  -1.28428528 
H   -2.17727291   1.40439650  -0.36363322 
H   -3.15879723   0.45702025  -1.48491289 
H   -1.84768220   1.45764010  -2.11626862 
C   -1.47611152  -0.87425419   1.31890672 
C   -0.57292755  -1.61632442   1.98864508 
C   -0.39308551  -1.55633275   3.34655084 
C   -1.31657476  -0.92923013   4.14856280 
C   -2.30809032  -0.16821141   3.58887703 
C   -2.11288730  -0.12799048   2.24778712 
H   -1.24908297  -0.92080473   5.19534338 
H   -3.16460229   0.29886345   4.09412569 
H   -0.01195791  -2.21634284   1.36377670 
H    0.45677543  -2.04954920   3.77683986 
H   -2.50176380   0.83936933   1.75199238 
C   -1.74734995  -1.18049142  -0.11556530 
H   -2.79802535  -1.39825635  -0.35860388 
H   -1.22693523  -2.12241295  -0.22072244 
O    1.74517170  -1.01533926  -1.11948693 
C    2.25924199  -0.79737594  -2.30721505 
O    1.84607067   0.02993281  -3.10060545 
C    3.46241140  -1.68649738  -2.60328050 
H    3.25539789  -2.73363968  -2.41235520 
H    4.29383265  -1.41121401  -1.96219009 
H    3.74909401  -1.54563936  -3.64448421 
*
