! EnGrad PBEh-3c
%output 
xyzfile=True 
end 
%scf 
maxiter 250 
end
%output
Print[P_Hirshfeld] = 1
end
% maxcore
4000
*xyz 0 1
Pd   0.68748451   0.56498414  -0.56039571 
O    2.25958598   1.54858572   0.21983175 
C    1.63795619   2.66369917   0.25707639 
O    0.40968813   2.65536433  -0.02786424 
C    2.43604585   3.91491309   0.55984655 
H    1.84285100   4.68179460   1.04150256 
H    2.80145337   4.33088167  -0.37608422 
H    3.31250591   3.70029007   1.16733142 
N   -1.21068674  -0.27784062  -1.17284802 
C   -1.23641421  -0.98602058  -2.47632960 
H   -0.91268482  -0.31244550  -3.26643654 
H   -2.26598844  -1.30905653  -2.70029308 
H   -0.58812460  -1.85578398  -2.48575386 
C   -2.14084921   0.84574417  -1.25925217 
H   -2.15642723   1.40785808  -0.33362733 
H   -3.15677270   0.47704410  -1.45965013 
H   -1.84050390   1.48314040  -2.08493998 
C   -1.50127027  -0.86350761   1.31650276 
C   -0.54893171  -1.59176422   1.97743995 
C   -0.35247824  -1.54175242   3.33951192 
C   -1.30285145  -0.91396525   4.11739466 
C   -2.32622797  -0.21093354   3.54471150 
C   -2.20898397  -0.11979653   2.19934985 
H   -1.21860072  -0.88716749   5.17795936 
H   -3.18768827   0.16648120   4.08954671 
H    0.06317425  -2.21446639   1.38270687 
H    0.49957107  -2.03578847   3.79735375 
H   -2.65888731   0.78213410   1.80241910 
C   -1.72170084  -1.19889328  -0.12217821 
H   -2.77259903  -1.42101777  -0.34811256 
H   -1.19896178  -2.14466766  -0.26843579 
O    1.74357030  -1.01286054  -1.11090025 
C    2.26346827  -0.81578231  -2.29680385 
O    1.86987356   0.01731177  -3.09330088 
C    3.44609053  -1.72686327  -2.59068840 
H    3.22120412  -2.77040012  -2.39556064 
H    4.28842114  -1.46318424  -1.95652331 
H    3.73681186  -1.60254995  -3.63304895 
*
