! EnGrad PBEh-3c
%output 
xyzfile=True 
end 
%scf 
maxiter 250 
end
%output
Print[P_Hirshfeld] = 1
end
% maxcore
4000
*xyz 0 1
Pd   0.69822688   0.61338899  -0.55146199 
O    2.29523382   1.58322990   0.27576244 
C    1.66778386   2.73977625   0.25152239 
O    0.48907347   2.74197799  -0.06213021 
C    2.44309847   3.99697589   0.54960311 
H    1.78584643   4.71634554   1.03934887 
H    2.77205190   4.43151865  -0.39523918 
H    3.31472595   3.81198306   1.16217235 
N   -1.18519102  -0.24172767  -1.17168061 
C   -1.24445840  -0.83541250  -2.51410410 
H   -0.94774772  -0.10070639  -3.25331558 
H   -2.27466847  -1.14590670  -2.73740329 
H   -0.61340560  -1.69786539  -2.60920792 
C   -2.10581599   0.89667914  -1.16419366 
H   -2.07611205   1.42831977  -0.23469621 
H   -3.13122443   0.55745823  -1.36294717 
H   -1.81876964   1.59779586  -1.94648447 
C   -1.42763626  -0.93633635   1.26431923 
C   -0.36976174  -1.58029822   1.97253744 
C   -0.22506433  -1.47883038   3.33215747 
C   -1.20148485  -0.87432963   4.06846005 
C   -2.36117011  -0.42305891   3.43592680 
C   -2.45597570  -0.22459518   2.07720117 
H   -1.11061490  -0.79227706   5.15455584 
H   -3.21550390  -0.25374807   4.06704728 
H    0.34496581  -2.19573609   1.43345088 
H    0.61065961  -1.95967064   3.83323341 
H   -3.63942255   0.79221752   1.78613082 
C   -1.61764030  -1.27134914  -0.17366017 
H   -2.68330392  -1.48855026  -0.31135850 
H   -1.09323238  -2.20667560  -0.42923005 
O    1.71401967  -1.01499008  -1.06442737 
C    2.27394033  -0.87758281  -2.25635173 
O    1.97196210  -0.04617789  -3.05977755 
C    3.38561137  -1.88515656  -2.54332093 
H    3.08320957  -2.90044593  -2.33255371 
H    4.25393599  -1.65553006  -1.93754535 
H    3.69440841  -1.82318775  -3.59483280 
*
