! EnGrad PBEh-3c
%output 
xyzfile=True 
end 
%scf 
maxiter 250 
end
%output
Print[P_Hirshfeld] = 1
end
% maxcore
4000
*xyz 0 1
Pd   0.70833257   0.60853848  -0.54886743 
O    2.27034399   1.60011524   0.26762245 
C    1.68967792   2.70886209   0.25825193 
O    0.46559350   2.73232041  -0.06318524 
C    2.43742326   3.98389198   0.55007837 
H    1.79479311   4.71378696   1.03940640 
H    2.77716839   4.42209009  -0.39366569 
H    3.31917758   3.79997615   1.16528583 
N   -1.18508673  -0.24836294  -1.16831840 
C   -1.25099845  -0.85302580  -2.51506120 
H   -0.94312269  -0.12439829  -3.25717027 
H   -2.27617320  -1.16572437  -2.73313124 
H   -0.60447356  -1.72465639  -2.59555023 
C   -2.11417163   0.88847540  -1.18304366 
H   -2.08625861   1.42767115  -0.23789018 
H   -3.13518384   0.54778836  -1.37375648 
H   -1.82014532   1.58069821  -1.96642158 
C   -1.46199112  -0.91087253   1.30059838 
C   -0.40300954  -1.57515259   1.95638733 
C   -0.22539767  -1.48656920   3.33693642 
C   -1.22086098  -0.88785498   4.07842578 
C   -2.35841254  -0.38241769   3.44407661 
C   -2.47492009  -0.17953910   2.06406917 
H   -1.12170703  -0.79959446   5.15024687 
H   -3.22081048  -0.21420906   4.06752942 
H    0.31975903  -2.20601745   1.42765889 
H    0.60311817  -1.97194624   3.83433306 
H   -3.45711928   0.76037823   1.82004694 
C   -1.62641008  -1.26549164  -0.17752334 
H   -2.69350592  -1.48176292  -0.31454433 
H   -1.10667902  -2.20126798  -0.41302420 
O    1.72281995  -1.01437333  -1.07935260 
C    2.27113031  -0.87455347  -2.25285445 
O    1.95657617  -0.03247486  -3.06794312 
C    3.39120577  -1.86120722  -2.55492393 
H    3.10018077  -2.89075539  -2.33861196 
H    4.26315449  -1.63246335  -1.93678957 
H    3.69753653  -1.79592883  -3.59492142 
*
