! EnGrad PBEh-3c
%output 
xyzfile=True 
end 
%scf 
maxiter 250 
end
%output
Print[P_Hirshfeld] = 1
end
% maxcore
4000
*xyz 0 1
Pd   0.69158082   0.58101792  -0.55647084 
O    2.25679614   1.58138347   0.25676501 
C    1.66105025   2.70337109   0.25995894 
O    0.45188000   2.69582251  -0.04893586 
C    2.43673112   3.93979241   0.55478591 
H    1.82237767   4.69967204   1.03961618 
H    2.79158595   4.38164212  -0.38420429 
H    3.32269679   3.75855135   1.16816556 
N   -1.18090393  -0.27174820  -1.15416139 
C   -1.24900962  -0.91990108  -2.49975972 
H   -0.92956918  -0.21093513  -3.27114273 
H   -2.28405057  -1.23926234  -2.72379446 
H   -0.59467881  -1.79689884  -2.54847526 
C   -2.12770835   0.86027973  -1.22153340 
H   -2.11975687   1.41539652  -0.28063004 
H   -3.15404656   0.51215342  -1.41667363 
H   -1.82766622   1.52954980  -2.03179367 
C   -1.55120556  -0.84455783   1.33152825 
C   -0.48849529  -1.56458755   1.95997691 
C   -0.27867650  -1.52032091   3.33047929 
C   -1.26530649  -0.89456846   4.08136464 
C   -2.35747980  -0.29076673   3.45401413 
C   -2.44991320  -0.02621155   2.07335808 
H   -1.16043694  -0.83009120   5.15794123 
H   -3.22446416  -0.06364321   4.08230954 
H    0.21095409  -2.22792442   1.41365471 
H    0.57333921  -2.01604426   3.83623031 
H   -2.91816064   0.66708180   1.90336805 
C   -1.66866665  -1.23741654  -0.14667052 
H   -2.72969107  -1.45917325  -0.32311821 
H   -1.15229787  -2.18729346  -0.35677954 
O    1.74174145  -1.00573829  -1.10181692 
C    2.26982692  -0.84937761  -2.27532467 
O    1.91296288  -0.00819933  -3.07748142 
C    3.41300812  -1.78959833  -2.57413598 
H    3.16167927  -2.83637053  -2.36711061 
H    4.28241291  -1.55101784  -1.94537946 
H    3.71717803  -1.70124200  -3.61249842 
*
