! EnGrad PBEh-3c
%output 
xyzfile=True 
end 
%scf 
maxiter 250 
end
%output
Print[P_Hirshfeld] = 1
end
% maxcore
4000
*xyz 0 1
Pd   0.55436974   0.51007648  -0.51939907 
O    2.16599956   1.53610767   0.41986347 
C    1.69515344   2.67496379   0.28664260 
O    0.47835541   2.80201875  -0.07162604 
C    2.49954648   3.90004885   0.56339938 
H    1.90387942   4.67302000   1.04438252 
H    2.86134888   4.29208926  -0.38876529 
H    3.36187187   3.66645335   1.18190405 
N   -1.23026472  -0.40681032  -1.14867223 
C   -1.27857436  -1.09847956  -2.45778384 
H   -0.95269529  -0.45168113  -3.26985770 
H   -2.29266654  -1.43429535  -2.71526804 
H   -0.65608478  -1.98482633  -2.47621637 
C   -2.16255695   0.71465917  -1.34289350 
H   -2.21355408   1.34625435  -0.47161867 
H   -3.19169012   0.39828808  -1.54720004 
H   -1.82736231   1.36425695  -2.15060751 
C   -1.42592410  -0.96368879   1.30433682 
C   -0.49413143  -1.72835779   2.01650350 
C   -0.36159130  -1.64727086   3.39583463 
C   -1.22699719  -0.83463497   4.10717889 
C   -2.29248172  -0.25913404   3.42377384 
C   -2.17429307  -0.03320436   2.05111067 
H   -1.14051976  -0.75829933   5.18358088 
H   -3.16125446   0.01597221   4.01110791 
H    0.10390425  -2.49211333   1.53273912 
H    0.38567120  -2.22979398   3.91920087 
H   -2.92621147   2.23410970   2.15367312 
C   -1.73948586  -1.34010510  -0.12217761 
H   -2.83080375  -1.45969166  -0.16441434 
H   -1.35400920  -2.34178492  -0.32918827 
O    1.79189102  -0.90214562  -1.11051150 
C    2.28942160  -0.76081911  -2.29921795 
O    1.82436167   0.00593933  -3.12247901 
C    3.50331759  -1.59031372  -2.66268720 
H    3.33210588  -2.65518596  -2.50999220 
H    4.34305126  -1.30724171  -2.02395284 
H    3.83889987  -1.45438002  -3.69068634 
*
