! EnGrad PBEh-3c
%output 
xyzfile=True 
end 
%scf 
maxiter 250 
end
%output
Print[P_Hirshfeld] = 1
end
% maxcore
4000
*xyz 0 1
Pd   0.62414058   0.49412471  -0.49939866 
O    2.13902830   1.48034120   0.34261584 
C    1.62961101   2.65936146   0.27823615 
O    0.44039417   2.74287777  -0.06078812 
C    2.50974011   3.81988541   0.56823977 
H    1.96145584   4.64313776   1.03171836 
H    2.90246174   4.22125637  -0.37350331 
H    3.38107267   3.59118823   1.18694076 
N   -1.24168657  -0.41699566  -1.15004247 
C   -1.26336842  -1.19926937  -2.42191644 
H   -0.89664780  -0.57156065  -3.24266475 
H   -2.29719459  -1.53719463  -2.66831954 
H   -0.61261614  -2.07842868  -2.35393912 
C   -2.17601565   0.70841587  -1.36920016 
H   -2.23491620   1.33507538  -0.47837362 
H   -3.19366483   0.34506940  -1.62046474 
H   -1.81352916   1.29252498  -2.22004759 
C   -1.46856778  -0.88471043   1.33533066 
C   -0.59609711  -1.76087353   2.03229666 
C   -0.42525599  -1.68810852   3.40764298 
C   -1.25125012  -0.87075564   4.14595928 
C   -2.17722399  -0.04144266   3.49259754 
C   -2.15641701   0.12932393   2.11772021 
H   -1.17975990  -0.79382451   5.21754898 
H   -2.98891079   0.46057984   4.04366657 
H   -0.06251405  -2.54249326   1.49260388 
H    0.29854798  -2.31524904   3.92751601 
H   -2.66384824   1.81059269   1.93502124 
C   -1.78641696  -1.27607484  -0.09247939 
H   -2.88374631  -1.36201639  -0.17976185 
H   -1.42590615  -2.29515551  -0.24839373 
O    1.83131373  -0.93752633  -1.14554618 
C    2.27329099  -0.71786743  -2.34292139 
O    1.74250010   0.04538101  -3.12940134 
C    3.52313962  -1.47490102  -2.67824912 
H    3.39081487  -2.55189188  -2.55939812 
H    4.35137839  -1.19450109  -2.01540904 
H    3.81722575  -1.27050448  -3.70274752 
*
