! EnGrad PBEh-3c
%output 
xyzfile=True 
end 
%scf 
maxiter 250 
end
%output
Print[P_Hirshfeld] = 1
end
% maxcore
4000
*xyz 0 1
Pd   0.62304834   0.50933335  -0.49726064 
O    2.13937884   1.49544442   0.35853592 
C    1.63980809   2.65965931   0.28433291 
O    0.45204091   2.75876728  -0.06652241 
C    2.50664192   3.84447248   0.56721614 
H    1.94267270   4.65356296   1.03512773 
H    2.89046152   4.24742252  -0.37996697 
H    3.37756228   3.61693375   1.18621437 
N   -1.24686316  -0.41345359  -1.15747975 
C   -1.26927272  -1.16986458  -2.44010665 
H   -0.91298891  -0.52897181  -3.25077668 
H   -2.29743624  -1.50118340  -2.68088901 
H   -0.62103678  -2.05087936  -2.39286737 
C   -2.17607158   0.71663616  -1.35872570 
H   -2.22780253   1.34247724  -0.46566130 
H   -3.19195524   0.35992447  -1.59766714 
H   -1.81721584   1.31422538  -2.19960464 
C   -1.44994016  -0.90502765   1.32801576 
C   -0.56565392  -1.75411030   2.02725216 
C   -0.39713089  -1.66780063   3.40115508 
C   -1.25003341  -0.87087286   4.13489491 
C   -2.20822340  -0.10078788   3.48043473 
C   -2.16768749   0.06470195   2.10480427 
H   -1.17094483  -0.78274810   5.20127530 
H   -3.04959713   0.32192135   4.03001333 
H   -0.00636797  -2.52513163   1.50090099 
H    0.32970989  -2.28602213   3.92434403 
H   -2.74779951   1.94009102   2.00247278 
C   -1.77077554  -1.29358345  -0.10501354 
H   -2.86590429  -1.39297289  -0.17931782 
H   -1.39867605  -2.30982790  -0.27349156 
O    1.82231801  -0.93535566  -1.13499119 
C    2.27387548  -0.72852185  -2.33233515 
O    1.76820798   0.03593169  -3.12968822 
C    3.51570697  -1.51327217  -2.67088616 
H    3.37102534  -2.58922849  -2.54067409 
H    4.35162483  -1.23264359  -2.01482135 
H    3.81963435  -1.32999432  -3.69619539 
*
