! EnGrad PBEh-3c
%output 
xyzfile=True 
end 
%scf 
maxiter 250 
end
%output
Print[P_Hirshfeld] = 1
end
% maxcore
4000
*xyz 0 1
Pd   0.61615095   0.47838862  -0.49446714 
O    2.14494021   1.44136646   0.32752207 
C    1.61818921   2.64232815   0.27868337 
O    0.41767368   2.73505464  -0.06005301 
C    2.52986105   3.80771281   0.56834879 
H    1.98939851   4.62287412   1.02769537 
H    2.92323470   4.17756026  -0.36545278 
H    3.38249364   3.54446957   1.18858631 
N   -1.25918342  -0.43297559  -1.16985882 
C   -1.24907021  -1.25331765  -2.39625519 
H   -0.87653150  -0.65249861  -3.21725764 
H   -2.27783691  -1.59210290  -2.63722147 
H   -0.61089913  -2.12002703  -2.28880769 
C   -2.17502886   0.69564652  -1.39504485 
H   -2.24633727   1.32186351  -0.51851598 
H   -3.18156210   0.31885831  -1.65364650 
H   -1.80446389   1.25112994  -2.24719317 
C   -1.49812057  -0.84550452   1.35649105 
C   -0.66029045  -1.77535061   2.04772776 
C   -0.46892002  -1.71962926   3.42738756 
C   -1.26160672  -0.85367078   4.14669510 
C   -2.13274533   0.05647131   3.49631196 
C   -2.12646398   0.23953624   2.13708274 
H   -1.18138531  -0.79993914   5.24300735 
H   -2.85736058   0.64804825   4.05543762 
H   -0.15922532  -2.57919352   1.49374415 
H    0.22627805  -2.36889252   3.93305342 
H   -2.53574506   1.63298814   1.84256860 
C   -1.81857334  -1.26450799  -0.05204143 
H   -2.91152328  -1.30894055  -0.17219075 
H   -1.48212171  -2.28636391  -0.21495715 
O    1.84105678  -0.94225457  -1.13889108 
C    2.26016057  -0.68527625  -2.35733064 
O    1.70249590   0.05784562  -3.14783332 
C    3.55430686  -1.41719944  -2.69319043 
H    3.42605853  -2.48489283  -2.60078420 
H    4.34676353  -1.12649771  -2.02565447 
H    3.82456038  -1.16955324  -3.72082676 
*
