! EnGrad PBEh-3c
%output 
xyzfile=True 
end 
%scf 
maxiter 250 
end
%output
Print[P_Hirshfeld] = 1
end
% maxcore
4000
*xyz 0 1
Pd   0.61154535   0.46240732  -0.49240649 
O    2.13763212   1.43332788   0.31284440 
C    1.61363536   2.61692925   0.27596691 
O    0.40896362   2.72531308  -0.05494528 
C    2.53709987   3.78563888   0.57027359 
H    2.01116379   4.60991928   1.02527081 
H    2.94118494   4.14552764  -0.36252315 
H    3.38575850   3.50860717   1.19091702 
N   -1.26483763  -0.44548143  -1.16622700 
C   -1.24409374  -1.29297652  -2.37408771 
H   -0.85784886  -0.71298053  -3.20210842 
H   -2.26666192  -1.63732376  -2.61546413 
H   -0.60427395  -2.15708900  -2.23681446 
C   -2.17540618   0.67920897  -1.41817723 
H   -2.25463157   1.31395055  -0.54398161 
H   -3.17572853   0.29926905  -1.68081014 
H   -1.79679883   1.22189987  -2.27214827 
C   -1.51570777  -0.82000852   1.37893872 
C   -0.71121067  -1.78289832   2.05446433 
C   -0.50796482  -1.74195168   3.43757920 
C   -1.26974517  -0.83914085   4.15873236 
C   -2.08876044   0.12756931   3.51032415 
C   -2.10495250   0.32868813   2.13758585 
H   -1.18546125  -0.80566478   5.25561146 
H   -2.76083827   0.80214870   4.06843777 
H   -0.23666846  -2.60630753   1.49349785 
H    0.17368083  -2.41207805   3.93991376 
H   -2.43428637   1.48350009   1.77032523 
C   -1.84330426  -1.24675329  -0.03472092 
H   -2.93451388  -1.26780074  -0.16652581 
H   -1.52463093  -2.27762864  -0.18656290 
O    1.85087434  -0.94207330  -1.14765620 
C    2.25281849  -0.66501564  -2.36610254 
O    1.67226543   0.06341391  -3.15385396 
C    3.56569953  -1.36402117  -2.71073886 
H    3.45360173  -2.43642385  -2.63174103 
H    4.34879643  -1.07238943  -2.02844855 
H    3.82879240  -1.09095163  -3.73156214 
*
