! EnGrad PBEh-3c
%output 
xyzfile=True 
end 
%scf 
maxiter 250 
end
%output
Print[P_Hirshfeld] = 1
end
% maxcore
4000
*xyz 0 1
Pd   0.61678358   0.48168223  -0.49474391 
O    2.14106533   1.45379454   0.33118077 
C    1.62266475   2.63946453   0.27922332 
O    0.42424571   2.73816416  -0.06010068 
C    2.52552830   3.81041357   0.56866218 
H    1.98349859   4.62723784   1.02892748 
H    2.91985527   4.18662253  -0.36842518 
H    3.38222438   3.55312596   1.18865102 
N   -1.25710274  -0.43131824  -1.16484393 
C   -1.25305652  -1.24282899  -2.40122004 
H   -0.88052404  -0.63746642  -3.22188335 
H   -2.28005437  -1.58148344  -2.64253382 
H   -0.61138918  -2.11276361  -2.30099325 
C   -2.17542255   0.69627430  -1.39215442 
H   -2.24387134   1.32502765  -0.51171272 
H   -3.18285788   0.32397888  -1.64692734 
H   -1.80560469   1.25933045  -2.24210777 
C   -1.49052650  -0.85384761   1.35550269 
C   -0.65010610  -1.77183583   2.04410378 
C   -0.46152341  -1.71250146   3.42332442 
C   -1.26084409  -0.85413356   4.14742286 
C   -2.13957919   0.03581440   3.49663472 
C   -2.13116606   0.21954201   2.12849172 
H   -1.18004303  -0.79725301   5.23565658 
H   -2.88018645   0.60784503   4.05272414 
H   -0.14161591  -2.57273565   1.49535036 
H    0.23843116  -2.35961606   3.93277836 
H   -2.56176427   1.66933074   1.86336463 
C   -1.81313216  -1.26664224  -0.06136443 
H   -2.90626525  -1.31905933  -0.17253252 
H   -1.47240522  -2.28972424  -0.22192798 
O    1.83907293  -0.94032409  -1.14092355 
C    2.26179160  -0.69095263  -2.35342013 
O    1.71097884   0.05361941  -3.14437436 
C    3.54704908  -1.42678957  -2.69247667 
H    3.41958584  -2.49830825  -2.59385457 
H    4.34875982  -1.13868445  -2.02342199 
H    3.82432173  -1.18885727  -3.71733266 
*
