! EnGrad PBEh-3c
%output 
xyzfile=True 
end 
%scf 
maxiter 250 
end
%output
Print[P_Hirshfeld] = 1
end
% maxcore
4000
*xyz 0 1
Pd   0.60963176   0.46517680  -0.49207379 
O    2.13739392   1.43578821   0.31646023 
C    1.61637144   2.62028665   0.27752940 
O    0.41418387   2.72837282  -0.05531741 
C    2.53482713   3.78761592   0.56991369 
H    2.00623842   4.61278533   1.02675501 
H    2.93938048   4.15140559  -0.36549949 
H    3.38489497   3.51350051   1.19133080 
N   -1.26577698  -0.44561770  -1.16462087 
C   -1.24523959  -1.28747738  -2.37656464 
H   -0.86058713  -0.70479021  -3.20393257 
H   -2.26618855  -1.63072644  -2.61746217 
H   -0.60588970  -2.15218324  -2.24360407 
C   -2.17474125   0.67937534  -1.41698173 
H   -2.25270390   1.31593436  -0.54320772 
H   -3.17540126   0.30211062  -1.67632055 
H   -1.79650327   1.22726754  -2.26906254 
C   -1.51199756  -0.82281489   1.37765331 
C   -0.70590132  -1.78143802   2.05484398 
C   -0.50600565  -1.73457751   3.43581313 
C   -1.26873446  -0.83671920   4.15634457 
C   -2.09438664   0.11706993   3.50598177 
C   -2.10374167   0.31369354   2.13033209 
H   -1.18317729  -0.80146647   5.25004014 
H   -2.76770634   0.76940145   4.06522014 
H   -0.22850386  -2.60200683   1.49747244 
H    0.17712035  -2.40710210   3.93998409 
H   -2.45250136   1.50495575   1.78991578 
C   -1.84015400  -1.24958378  -0.03874645 
H   -2.93132148  -1.27339872  -0.16533837 
H   -1.52050795  -2.28104504  -0.19170734 
O    1.84821010  -0.94008709  -1.14700458 
C    2.25357007  -0.66812983  -2.36369502 
O    1.67774119   0.05944506  -3.15319045 
C    3.56154699  -1.36962294  -2.71025011 
H    3.45019513  -2.44396498  -2.62952392 
H    4.34961556  -1.07893619  -2.02815198 
H    3.83052543  -1.10226133  -3.73052514 
*
