! EnGrad PBEh-3c
%output 
xyzfile=True 
end 
%scf 
maxiter 250 
end
%output
Print[P_Hirshfeld] = 1
end
% maxcore
4000
*xyz 0 1
Pd   0.59481195   0.43945995  -0.48747819 
O    2.12751778   1.41391169   0.29541389 
C    1.61040000   2.58895443   0.27560934 
O    0.40687289   2.71464474  -0.04606169 
C    2.54625534   3.74903681   0.57174161 
H    2.03860966   4.59176153   1.02497748 
H    2.97053967   4.09884400  -0.36466326 
H    3.38817245   3.45204841   1.19670532 
N   -1.27867150  -0.47034533  -1.15644472 
C   -1.23375438  -1.35617483  -2.33577712 
H   -0.82889287  -0.80920537  -3.17648747 
H   -2.24347667  -1.70787942  -2.57767426 
H   -0.59715937  -2.21468526  -2.15294061 
C   -2.17215553   0.64927140  -1.45854440 
H   -2.26487346   1.30384888  -0.59613719 
H   -3.16387898   0.26830596  -1.72160000 
H   -1.77969857   1.18028133  -2.31273559 
C   -1.54173521  -0.77608438   1.41291438 
C   -0.79592378  -1.79333298   2.07324125 
C   -0.58094356  -1.76215214   3.45401923 
C   -1.28174193  -0.79942219   4.16982343 
C   -2.01975759   0.24301701   3.51508431 
C   -2.04544047   0.42391979   2.12464818 
H   -1.18634068  -0.80141607   5.26443610 
H   -2.58275422   1.00192715   4.08273937 
H   -0.36921198  -2.64514231   1.50750770 
H    0.07350920  -2.48070030   3.95252458 
H   -2.29732558   1.27199183   1.69276392 
C   -1.88241136  -1.22165016  -0.00870689 
H   -2.97060837  -1.20219866  -0.15090894 
H   -1.59836346  -2.26952006  -0.14571110 
O    1.86019140  -0.93543748  -1.16106241 
C    2.24192405  -0.63586424  -2.37714079 
O    1.62765437   0.06310062  -3.16570981 
C    3.57815844  -1.27684240  -2.74073015 
H    3.49876620  -2.36031620  -2.68861320 
H    4.35245673  -0.98453095  -2.03563134 
H    3.84337988  -0.96810440  -3.75069339 
*
