! EnGrad PBEh-3c
%output 
xyzfile=True 
end 
%scf 
maxiter 250 
end
%output
Print[P_Hirshfeld] = 1
end
% maxcore
4000
*xyz 0 1
Pd   0.60275385   0.53326985  -0.49780641 
O    2.16528318   1.48465774   0.39753226 
C    1.64034633   2.69771487   0.29097609 
O    0.47793787   2.78878683  -0.07575636 
C    2.51070220   3.89471691   0.56278820 
H    1.90904573   4.66886560   1.04168534 
H    2.86791395   4.28834529  -0.38781501 
H    3.36770022   3.65998569   1.18364730 
N   -1.25885044  -0.40838798  -1.18378241 
C   -1.27073066  -1.12186454  -2.46815141 
H   -0.94487944  -0.46189330  -3.26034330 
H   -2.29291434  -1.43966547  -2.70100886 
H   -0.64522132  -1.99733002  -2.46017787 
C   -2.17128737   0.73391557  -1.33781445 
H   -2.21612728   1.34973898  -0.45956144 
H   -3.18647932   0.38524653  -1.55726437 
H   -1.82372708   1.34929627  -2.16049619 
C   -1.43035626  -0.93545879   1.30177900 
C   -0.50708111  -1.74826155   2.03136472 
C   -0.35493440  -1.63507645   3.39419774 
C   -1.23813081  -0.86690838   4.10268971 
C   -2.27559713  -0.20150328   3.43280903 
C   -2.18067863  -0.04059798   2.09639838 
H   -1.14986806  -0.76060221   5.18376640 
H   -3.14095552   0.07097628   4.00494787 
H    0.08724272  -2.49728366   1.52119640 
H    0.37570131  -2.23778324   3.91799367 
H   -2.89399780   2.17664732   2.12348201 
C   -1.74360512  -1.33489515  -0.10880694 
H   -2.83541894  -1.44547952  -0.17427871 
H   -1.35779565  -2.33787062  -0.31973451 
O    1.80137395  -0.92881041  -1.10090549 
C    2.27474424  -0.74149042  -2.31916209 
O    1.81282621   0.01849908  -3.13460423 
C    3.51557936  -1.58533606  -2.65238918 
H    3.33842785  -2.64601544  -2.51341519 
H    4.34450129  -1.29693167  -2.02191114 
H    3.82949327  -1.43039304  -3.69146137 
*
