! EnGrad PBEh-3c
%output 
xyzfile=True 
end 
%scf 
maxiter 250 
end
%output
Print[P_Hirshfeld] = 1
end
% maxcore
4000
*xyz 0 1
Pd   0.62344063   0.52620069  -0.49374596 
O    2.12727167   1.53872361   0.37409760 
C    1.66307838   2.62600289   0.29275663 
O    0.46407402   2.77993755  -0.07293818 
C    2.50234886   3.87672903   0.56762942 
H    1.92280658   4.66488680   1.03852440 
H    2.87770877   4.27673794  -0.38814237 
H    3.37355761   3.64435626   1.18552049 
N   -1.25304636  -0.41047656  -1.16340992 
C   -1.27928919  -1.13589690  -2.46090924 
H   -0.93090980  -0.48230117  -3.25967063 
H   -2.29589463  -1.46121518  -2.69432784 
H   -0.62926276  -2.02204222  -2.43557238 
C   -2.17734560   0.72241043  -1.35119982 
H   -2.21982810   1.35209595  -0.44990225 
H   -3.18861624   0.37695741  -1.57198902 
H   -1.82114651   1.33845879  -2.17689875 
C   -1.42332255  -0.93094470   1.32951724 
C   -0.53923053  -1.74114804   2.01450920 
C   -0.36257517  -1.64813914   3.39524193 
C   -1.25561748  -0.86516364   4.12520532 
C   -2.23769942  -0.17066060   3.47662869 
C   -2.17954521  -0.00510284   2.07983618 
H   -1.16081096  -0.77036932   5.18012613 
H   -3.11600081   0.16782552   4.01486772 
H    0.05620547  -2.50716595   1.51046672 
H    0.36315098  -2.25368246   3.92095523 
H   -2.84084439   2.08332767   2.07750991 
C   -1.75562660  -1.31161219  -0.12273273 
H   -2.84572057  -1.42718261  -0.17846505 
H   -1.36859962  -2.32714428  -0.30117651 
O    1.81341997  -0.93261906  -1.12625311 
C    2.27082610  -0.73712567  -2.31971092 
O    1.79891312   0.02185637  -3.12746816 
C    3.50629354  -1.55411784  -2.66727002 
H    3.34914556  -2.63165519  -2.52002076 
H    4.35369837  -1.27397921  -2.01283607 
H    3.82241963  -1.39593021  -3.68740856 
*
