! EnGrad PBEh-3c
%output 
xyzfile=True 
end 
%scf 
maxiter 250 
end
%output
Print[P_Hirshfeld] = 1
end
% maxcore
4000
*xyz 0 1
Pd   0.62127228   0.52631793  -0.49422074 
O    2.14018794   1.51084278   0.37611371 
C    1.65140554   2.65698746   0.29180566 
O    0.46328085   2.77730983  -0.07351260 
C    2.50512890   3.87389541   0.56601381 
H    1.92273394   4.66406392   1.03871289 
H    2.87770830   4.27482033  -0.38668598 
H    3.37332144   3.64370808   1.18535431 
N   -1.25468950  -0.41033007  -1.16902598 
C   -1.27487100  -1.13930043  -2.45982648 
H   -0.93092961  -0.48495971  -3.25814965 
H   -2.29601940  -1.46265505  -2.69324665 
H   -0.63109646  -2.02123157  -2.43397603 
C   -2.17605192   0.72575911  -1.34818970 
H   -2.22032838   1.35010988  -0.45386002 
H   -3.18878541   0.37546552  -1.57317597 
H   -1.82096796   1.33651637  -2.17725504 
C   -1.43029507  -0.92587058   1.32094747 
C   -0.53488449  -1.74704965   2.02241236 
C   -0.36656429  -1.64664524   3.39538318 
C   -1.24975087  -0.86966665   4.12119314 
C   -2.24195504  -0.16316420   3.46614898 
C   -2.17860917  -0.00356310   2.09169104 
H   -1.16056294  -0.77019581   5.18451315 
H   -3.11103423   0.17222889   4.01457564 
H    0.05287877  -2.50753290   1.51069076 
H    0.36089211  -2.25537852   3.92078807 
H   -2.83720264   2.07987418   2.07494539 
C   -1.75487502  -1.31392629  -0.11586379 
H   -2.84679172  -1.42549096  -0.17830049 
H   -1.37075512  -2.32648764  -0.30068215 
O    1.81235028  -0.93347517  -1.12126203 
C    2.27334523  -0.73838631  -2.32084787 
O    1.79541157   0.02616401  -3.13204833 
C    3.51022161  -1.55483377  -2.66306597 
H    3.35028639  -2.62800460  -2.52169053 
H    4.35118633  -1.27262972  -2.01517729 
H    3.82301716  -1.39262049  -3.68991439 
*
