! EnGrad PBEh-3c
%output 
xyzfile=True 
end 
%scf 
maxiter 250 
end
%output
Print[P_Hirshfeld] = 1
end
% maxcore
4000
*xyz 1 1
Ir   0.57874779  -0.79586776   0.40646322 
C    0.24235155  -2.90904230   0.76633329 
C   -0.10206900  -2.31668881   2.02298490 
C    2.10651799  -1.81940716   1.55715632 
C    1.61405709  -2.67777821   0.52458121 
C    1.04144237  -1.64216373   2.48783948 
N   -1.17528416  -0.21368380  -0.58015362 
C   -2.51905039  -0.27241974   0.03251292 
C   -2.65386442   0.76890044   1.13383235 
H   -3.63421969   0.67092513   1.60716023 
H   -2.57840805   1.77343866   0.72615164 
H   -1.90443463   0.64834575   1.91049648 
C   -3.66495481  -0.15731424  -0.96124995 
H   -2.57944582  -1.25498195   0.48424122 
H   -4.60516463  -0.34065650  -0.43009381 
H   -3.74192909   0.83520528  -1.39831354 
H   -3.60573207  -0.89898340  -1.75516673 
C   -0.99874291   0.18488526  -1.79080966 
C    0.33545722   0.14591908  -2.31406197 
H   -1.82226158   0.51407068  -2.40295503 
C    1.32749381  -0.30857057  -1.45749489 
C    2.58113899  -0.35111420  -2.20095083 
S    0.85523328   0.48067205  -3.92019387 
C    2.45017087   0.05630653  -3.51256038 
H    2.24010145   1.44764929  -0.74634045 
H    3.53232324  -0.65705493  -1.79693628 
H    3.23750317   0.10166621  -4.25055659 
H   -0.38666507  -3.59236098   0.18558290 
H   -1.03226059  -2.41597171   2.55153801 
H    1.09159453  -1.07968325   3.41525147 
O    2.19637258   2.17778074  -0.20312588 
O    0.56416976   1.24104575   1.06752940 
C    1.27320234   2.21287224   0.77244166 
C    1.11931405   3.51931831   1.52967575 
H    0.95188909   4.33605837   0.83097545 
H    2.04070926   3.74597378   2.06655932 
H    0.30045596   3.46238315   2.23471000 
H    3.13148535  -1.49768059   1.68064693 
H    2.19195096  -3.12208185  -0.27392450 
*
