! EnGrad PBEh-3c
%output 
xyzfile=True 
end 
%scf 
maxiter 250 
end
%output
Print[P_Hirshfeld] = 1
end
% maxcore
4000
*xyz 1 1
Ir   0.58043518  -0.79684329   0.40397805 
C    0.23847174  -2.91309286   0.76451420 
C   -0.09866412  -2.31335855   2.02483114 
C    2.10981874  -1.82120553   1.55515045 
C    1.61666893  -2.67722301   0.52426370 
C    1.03903762  -1.64293352   2.48977016 
N   -1.17564568  -0.21406651  -0.58213501 
C   -2.51837224  -0.27082112   0.03176338 
C   -2.65494253   0.76908355   1.13382828 
H   -3.63393761   0.67199528   1.60589482 
H   -2.57857711   1.77494859   0.72513856 
H   -1.90446036   0.64946141   1.91043792 
C   -3.66571965  -0.15848028  -0.96036365 
H   -2.57888133  -1.25672175   0.48574714 
H   -4.60366245  -0.34068350  -0.43087795 
H   -3.74215974   0.83516697  -1.39965618 
H   -3.60494025  -0.89987368  -1.75572660 
C   -0.99678433   0.18486927  -1.79189405 
C    0.33439722   0.14480284  -2.31017753 
H   -1.82391466   0.51451011  -2.40366651 
C    1.32975842  -0.30933413  -1.46109910 
C    2.57504760  -0.34949180  -2.19772529 
S    0.85452848   0.48100560  -3.91982818 
C    2.44965466   0.05451141  -3.50869165 
H    2.23710596   1.42914691  -0.75486880 
H    3.53312804  -0.65727533  -1.79675872 
H    3.23687936   0.10163573  -4.25127388 
H   -0.38598516  -3.58895385   0.18816395 
H   -1.03311957  -2.41411982   2.55256799 
H    1.09345224  -1.07958023   3.41341083 
O    2.18896851   2.20417023  -0.17854506 
O    0.56751275   1.24325377   1.06574013 
C    1.27798251   2.20607001   0.76406196 
C    1.12235809   3.51530212   1.52581648 
H    0.95175369   4.33626516   0.83125574 
H    2.04051354   3.74564831   2.06730355 
H    0.29938796   3.46163338   2.23533252 
H    3.13138603  -1.49881467   1.67952522 
H    2.19035237  -3.12093281  -0.27556428 
*
