! EnGrad PBEh-3c
%output 
xyzfile=True 
end 
%scf 
maxiter 250 
end
%output
Print[P_Hirshfeld] = 1
end
% maxcore
4000
*xyz 1 1
Ir   0.59129326  -0.80894497   0.39282279 
C    0.23777555  -2.91637893   0.76912743 
C   -0.09091804  -2.29979382   2.03232332 
C    2.12103233  -1.83428408   1.54697525 
C    1.62088529  -2.68245308   0.51914635 
C    1.04756387  -1.64780811   2.49179584 
N   -1.17605659  -0.21964703  -0.59357412 
C   -2.51251129  -0.26999795   0.02849924 
C   -2.65618000   0.77763909   1.12831263 
H   -3.63602398   0.68245489   1.59461276 
H   -2.58070749   1.78605009   0.71672900 
H   -1.90640637   0.66229016   1.90842407 
C   -3.66380436  -0.16449835  -0.96272589 
H   -2.57149696  -1.26167788   0.49557146 
H   -4.59651387  -0.34327967  -0.43436738 
H   -3.74444638   0.82887101  -1.41113627 
H   -3.59702935  -0.90777592  -1.75865033 
C   -0.99958563   0.18586978  -1.79991833 
C    0.32781754   0.14205675  -2.30191032 
H   -1.83281067   0.51815731  -2.40975333 
C    1.33114265  -0.31559070  -1.47119169 
C    2.56190170  -0.34440340  -2.17558070 
S    0.85020231   0.47989364  -3.90351735 
C    2.44206211   0.04560195  -3.48892061 
H    2.20735370   1.41895862  -0.71921284 
H    3.52553904  -0.65576328  -1.79459145 
H    3.22205220   0.09879804  -4.24489418 
H   -0.39633784  -3.57089762   0.20055742 
H   -1.03232996  -2.39005167   2.55852464 
H    1.11263217  -1.07320477   3.40190363 
O    2.18026081   2.25572735  -0.14394686 
O    0.58901317   1.22525063   1.04040568 
C    1.28016425   2.20929224   0.76711488 
C    1.12736794   3.49022287   1.51484365 
H    0.95296025   4.32938098   0.83547971 
H    2.03662748   3.73697013   2.07023532 
H    0.30422323   3.45104269   2.22662881 
H    3.13974389  -1.50969789   1.66892709 
H    2.17805158  -3.11090664  -0.29678993 
*
