! EnGrad PBEh-3c
%output 
xyzfile=True 
end 
%scf 
maxiter 250 
end
%output
Print[P_Hirshfeld] = 1
end
% maxcore
4000
*xyz 1 1
Ir   0.59495569  -0.81413855   0.38909463 
C    0.23929314  -2.91427496   0.77297610 
C   -0.08918988  -2.29653604   2.03368703 
C    2.12475126  -1.83900355   1.54506223 
C    1.62067485  -2.68634360   0.51670688 
C    1.05570018  -1.64916660   2.49025205 
N   -1.17616108  -0.22311393  -0.59623313 
C   -2.51077176  -0.27193524   0.02821447 
C   -2.65503957   0.78177704   1.12449638 
H   -3.63716940   0.68712068   1.58938797 
H   -2.58152031   1.79029845   0.71309020 
H   -1.90751967   0.66860189   1.90718428 
C   -3.66101662  -0.16675590  -0.96539725 
H   -2.56768271  -1.26093949   0.49860647 
H   -4.59458396  -0.34498042  -0.43527733 
H   -3.74523790   0.82494333  -1.41591349 
H   -3.59351524  -0.91113961  -1.75960138 
C   -1.00393900   0.18583296  -1.80236030 
C    0.32517757   0.14169686  -2.30231869 
H   -1.83598407   0.52000509  -2.41262207 
C    1.32511247  -0.31899744  -1.46615031 
C    2.56182138  -0.34378038  -2.17143823 
S    0.84918516   0.47956055  -3.89700625 
C    2.43849671   0.04384083  -3.48348819 
H    2.19517352   1.43171244  -0.69250039 
H    3.52217200  -0.65573515  -1.79063133 
H    3.21384724   0.09690759  -4.23886987 
H   -0.40303532  -3.56392406   0.20427031 
H   -1.03096860  -2.37753298   2.56014430 
H    1.12181502  -1.06886364   3.39772665 
O    2.18256719   2.25782254  -0.14913524 
O    0.59741484   1.21655035   1.02985237 
C    1.27897118   2.20984346   0.77096884 
C    1.12526091   3.48924036   1.51848869 
H    0.95426594   4.32325544   0.83736164 
H    2.03443015   3.73100978   2.07001187 
H    0.30647144   3.44506343   2.22231932 
H    3.14462783  -1.51501018   1.66428682 
H    2.17342561  -3.10654489  -0.30776859 
*
