! EnGrad PBEh-3c
%output 
xyzfile=True 
end 
%scf 
maxiter 250 
end
%output
Print[P_Hirshfeld] = 1
end
% maxcore
4000
*xyz 1 1
Ir   0.59386910  -0.81942114   0.39215858 
C    0.24105919  -2.91049255   0.77497566 
C   -0.08733701  -2.29514000   2.03428495 
C    2.12784124  -1.84264575   1.54286457 
C    1.62005050  -2.69065576   0.51446590 
C    1.06446869  -1.64889161   2.48814942 
N   -1.17614531  -0.22759086  -0.59667123 
C   -2.50887452  -0.27357586   0.02752293 
C   -2.65342824   0.78457731   1.12046048 
H   -3.63723101   0.69106572   1.58450110 
H   -2.58167514   1.79312538   0.70996285 
H   -1.90833395   0.67451152   1.90587501 
C   -3.65846614  -0.16912334  -0.96737203 
H   -2.56411745  -1.25866255   0.50036826 
H   -4.59316992  -0.34678662  -0.43619695 
H   -3.74527842   0.82090272  -1.41957899 
H   -3.59046923  -0.91394109  -1.76057474 
C   -1.00942136   0.18461279  -1.80319858 
C    0.32119221   0.14115405  -2.30295675 
H   -1.83863794   0.52218067  -2.41547713 
C    1.31896628  -0.32111161  -1.46352628 
C    2.56113027  -0.34664274  -2.16848552 
S    0.84858968   0.48003691  -3.89239906 
C    2.43462538   0.04454474  -3.47950918 
H    2.18785396   1.44383496  -0.67111730 
H    3.51923544  -0.65671273  -1.78312993 
H    3.20628840   0.09461816  -4.23051978 
H   -0.41050187  -3.55798955   0.20521448 
H   -1.02888903  -2.36411860   2.55934020 
H    1.13014553  -1.06348495   3.39400604 
O    2.18485472   2.25594225  -0.15706896 
O    0.60521045   1.20961176   1.02032424 
C    1.27739135   2.21456901   0.77620609 
C    1.12278088   3.49036949   1.52349532 
H    0.95575677   4.31666459   0.83734283 
H    2.03404726   3.72419692   2.06927180 
H    0.30529021   3.43808595   2.22083058 
H    3.15047279  -1.52013907   1.66114486 
H    2.17060685  -3.10236317  -0.31854217 
*
