! EnGrad PBEh-3c
%output 
xyzfile=True 
end 
%scf 
maxiter 250 
end
%output
Print[P_Hirshfeld] = 1
end
% maxcore
4000
*xyz 1 1
Ir   0.59237055  -0.82295160   0.39489367 
C    0.23974278  -2.90893302   0.77485445 
C   -0.08312599  -2.29321496   2.03530946 
C    2.13224619  -1.84613532   1.54008113 
C    1.62049265  -2.69447627   0.51183577 
C    1.07111880  -1.64812418   2.48623716 
N   -1.17706232  -0.23206128  -0.59652225 
C   -2.50778345  -0.27415023   0.02706665 
C   -2.65200909   0.78673788   1.11667328 
H   -3.63637510   0.69460743   1.57951128 
H   -2.58132212   1.79516807   0.70661538 
H   -1.90893803   0.68020078   1.90435079 
C   -3.65653482  -0.17186810  -0.96866296 
H   -2.56104384  -1.25619477   0.50183609 
H   -4.59161531  -0.34878657  -0.43737555 
H   -3.74473537   0.81684590  -1.42264365 
H   -3.58767183  -0.91669730  -1.76156549 
C   -1.01366400   0.18252844  -1.80292805 
C    0.31693750   0.13987194  -2.30214487 
H   -1.84107995   0.52420433  -2.41749619 
C    1.31327684  -0.32344613  -1.46011129 
C    2.55763762  -0.35067442  -2.16555827 
S    0.84724604   0.48185919  -3.89124038 
C    2.43015255   0.04573490  -3.47425156 
H    2.18333586   1.44588224  -0.65879850 
H    3.51661709  -0.65844725  -1.77370553 
H    3.20145362   0.09246399  -4.22335395 
H   -0.41718126  -3.55154904   0.20556055 
H   -1.02682078  -2.35042380   2.55764460 
H    1.13849056  -1.05779939   3.39009404 
O    2.18469551   2.26318825  -0.15697158 
O    0.61182748   1.20860112   1.01461163 
C    1.27903912   2.21430627   0.77504888 
C    1.12065365   3.49082506   1.52803992 
H    0.95686132   4.31153601   0.83585879 
H    2.03555511   3.71766434   2.06954443 
H    0.30030394   3.43124299   2.22301459 
H    3.15599817  -1.52551184   1.65825234 
H    2.16799997  -3.09815845  -0.32835264 
*
