! EnGrad PBEh-3c
%output 
xyzfile=True 
end 
%scf 
maxiter 250 
end
%output
Print[P_Hirshfeld] = 1
end
% maxcore
4000
*xyz 1 1
Ir   0.59049266  -0.82561108   0.39859614 
C    0.23673675  -2.90804017   0.77269319 
C   -0.07527629  -2.28961720   2.03727622 
C    2.13993213  -1.85252439   1.53371997 
C    1.62105153  -2.69880133   0.50764344 
C    1.08034356  -1.64551697   2.48389566 
N   -1.17988924  -0.23871589  -0.59576844 
C   -2.50711421  -0.27325256   0.02635127 
C   -2.65019321   0.78987226   1.11127097 
H   -3.63398588   0.69979347   1.57139294 
H   -2.57978973   1.79754141   0.70023717 
H   -1.90935377   0.68905874   1.90147228 
C   -3.65469226  -0.17696556  -0.96975295 
H   -2.55741310  -1.25308722   0.50466234 
H   -4.58903792  -0.35257044  -0.43972806 
H   -3.74288828   0.81034079  -1.42677404 
H   -3.58337358  -0.92142574  -1.76309502 
C   -1.01886226   0.17839021  -1.80173958 
C    0.31033641   0.13681363  -2.29972170 
H   -1.84422023   0.52670418  -2.41836652 
C    1.30476476  -0.32702664  -1.45642192 
C    2.54937788  -0.35919824  -2.15773849 
S    0.84291738   0.48618369  -3.89097763 
C    2.42401037   0.04755090  -3.46500338 
H    2.18202273   1.44140710  -0.64960939 
H    3.50970983  -0.66178937  -1.75682766 
H    3.19735737   0.08930651  -4.21267889 
H   -0.42800577  -3.54104058   0.20443064 
H   -1.02280143  -2.32751035   2.55354502 
H    1.15230486  -1.04844624   3.38252975 
O    2.18565452   2.27763462  -0.15649825 
O    0.61735937   1.20739485   1.01095828 
C    1.28264402   2.22064590   0.77433779 
C    1.11666678   3.48656546   1.53383959 
H    0.95779575   4.30554140   0.83250391 
H    2.03969355   3.70771602   2.07176896 
H    0.28933963   3.42074475   2.22986237 
H    3.16490611  -1.53478163   1.65356094 
H    2.16390332  -3.09147303  -0.34282048 
*
