! EnGrad PBEh-3c
%output 
xyzfile=True 
end 
%scf 
maxiter 250 
end
%output
Print[P_Hirshfeld] = 1
end
% maxcore
4000
*xyz 0 1
Pd   0.61647659   0.56020613  -0.55152309 
O    2.23242011   1.58076580   0.34970200 
C    1.70448803   2.70301037   0.27538647 
O    0.47811350   2.77763807  -0.05266414 
C    2.45966942   3.95644049   0.55907332 
H    1.83306069   4.69932649   1.04776714 
H    2.80557467   4.37160501  -0.38916493 
H    3.33183432   3.75001230   1.17366684 
N   -1.19194534  -0.32227407  -1.15682441 
C   -1.26804088  -0.95402334  -2.49294280 
H   -0.95473857  -0.26947882  -3.27813128 
H   -2.28690602  -1.28424055  -2.73442477 
H   -0.64125926  -1.83562102  -2.56108771 
C   -2.12894632   0.80522739  -1.27133659 
H   -2.11316080   1.39687061  -0.36700254 
H   -3.16224403   0.48921825  -1.44041452 
H   -1.82905765   1.49073981  -2.06151322 
C   -1.41648171  -0.93494562   1.28957216 
C   -0.41893786  -1.63661570   1.98245796 
C   -0.27765194  -1.56087791   3.36220568 
C   -1.20199994  -0.83141845   4.09206618 
C   -2.35318428  -0.41276134   3.42930704 
C   -2.28471923  -0.12916286   2.05712304 
H   -1.11618551  -0.77755818   5.17025589 
H   -3.22638026  -0.24314193   4.05076222 
H    0.24475870  -2.33403813   1.48420080 
H    0.52652311  -2.07766408   3.87058185 
H   -3.41774634   1.61426524   2.02686399 
C   -1.66391219  -1.30398271  -0.15539798 
H   -2.74503681  -1.47964296  -0.23625065 
H   -1.20318632  -2.26694793  -0.38820003 
O    1.75287231  -0.95976669  -1.09092428 
C    2.28658283  -0.83664744  -2.26716765 
O    1.91204278  -0.02334527  -3.09168546 
C    3.44245121  -1.75342556  -2.60450782 
H    3.20323648  -2.79787078  -2.41017620 
H    4.30164868  -1.49875258  -1.97958296 
H    3.76996491  -1.67112205  -3.64005249 
*
