! EnGrad PBEh-3c
%output 
xyzfile=True 
end 
%scf 
maxiter 250 
end
%output
Print[P_Hirshfeld] = 1
end
% maxcore
4000
*xyz 0 1
Pd   0.65160682   0.53791539  -0.53213706 
O    2.19093829   1.52168280   0.29933559 
C    1.63332842   2.67543732   0.27096329 
O    0.43279259   2.70841514  -0.04996006 
C    2.47132021   3.87234789   0.56393338 
H    1.89737029   4.66986720   1.03794040 
H    2.84726571   4.29065915  -0.37622809 
H    3.35088728   3.66343890   1.17761718 
N   -1.21411047  -0.35100168  -1.15729431 
C   -1.25741813  -1.08283146  -2.46198787 
H   -0.91596523  -0.42062060  -3.26723190 
H   -2.29382044  -1.41291539  -2.69895164 
H   -0.60492410  -1.96238687  -2.44715152 
C   -2.16128664   0.77431346  -1.30927620 
H   -2.20035644   1.36984841  -0.39665959 
H   -3.18123764   0.41215228  -1.53614419 
H   -1.83048562   1.39182614  -2.14915281 
C   -1.50195406  -0.82961732   1.33930342 
C   -0.55160551  -1.66465862   1.99895344 
C   -0.35820854  -1.62053027   3.37475211 
C   -1.27020853  -0.90593111   4.12278666 
C   -2.26834415  -0.14320427   3.48215172 
C   -2.29387292   0.17844881   2.11213821 
H   -1.19022686  -0.83947957   5.20050852 
H   -3.13245858   0.23136626   4.06223492 
H    0.05359726  -2.40003334   1.44986835 
H    0.44184693  -2.17598135   3.87924722 
H   -2.66481648   1.21683170   1.94490630 
C   -1.73064974  -1.24943484  -0.10850294 
H   -2.81258826  -1.41335189  -0.24596864 
H   -1.29161522  -2.23949504  -0.28303800 
O    1.79092448  -0.96958570  -1.12613640 
C    2.27174496  -0.77437891  -2.31514869 
O    1.81617260   0.02905023  -3.10897997 
C    3.48133480  -1.61316193  -2.63185799 
H    3.30215508  -2.67901925  -2.46838784 
H    4.32712502  -1.34288155  -1.98712588 
H    3.78034004  -1.46195558  -3.66576805 
*
