! EnGrad PBEh-3c
%output 
xyzfile=True 
end 
%scf 
maxiter 250 
end
%output
Print[P_Hirshfeld] = 1
end
% maxcore
4000
*xyz 0 1
Pd   0.65845060   0.55312100  -0.53149599 
O    2.19757939   1.53839058   0.30843425 
C    1.64816681   2.68038186   0.27468823 
O    0.44487154   2.72690266  -0.05331773 
C    2.46778205   3.89813010   0.56283870 
H    1.87657256   4.68017731   1.04069170 
H    2.83459666   4.31946726  -0.38144636 
H    3.34743790   3.69290740   1.17755442 
N   -1.21334658  -0.34076129  -1.16450942 
C   -1.26156594  -1.04435503  -2.47830456 
H   -0.92747693  -0.36910007  -3.26996201 
H   -2.29276744  -1.36922253  -2.70837107 
H   -0.61130992  -1.92496012  -2.48359745 
C   -2.15428578   0.78931522  -1.29522781 
H   -2.17438670   1.38199394  -0.37756392 
H   -3.17388306   0.43570598  -1.50551534 
H   -1.82926257   1.42097374  -2.12284490 
C   -1.47493676  -0.85973834   1.32807228 
C   -0.51086343  -1.65895794   1.99314516 
C   -0.32381526  -1.59337474   3.36827954 
C   -1.25486337  -0.90071325   4.11524517 
C   -2.28907122  -0.21378032   3.47465369 
C   -2.30456132   0.07210744   2.10100504 
H   -1.16915044  -0.81911340   5.18584174 
H   -3.16828901   0.08171513   4.05321584 
H    0.11759768  -2.37928603   1.45683151 
H    0.47171665  -2.14259753   3.87640421 
H   -2.89470445   1.33850858   1.97040247 
C   -1.70873675  -1.26415827  -0.12704251 
H   -2.79017272  -1.43448620  -0.24675344 
H   -1.26051932  -2.24792330  -0.31594709 
O    1.78066125  -0.97302575  -1.11634237 
C    2.27336710  -0.79136159  -2.30268356 
O    1.84567511   0.01495247  -3.10520155 
C    3.46846685  -1.65948754  -2.62133509 
H    3.26998104  -2.72109942  -2.44736774 
H    4.32127916  -1.39443552  -1.98217505 
H    3.77362809  -1.52884301  -3.65520768 
*
