! EnGrad PBEh-3c
%output 
xyzfile=True 
end 
%scf 
maxiter 250 
end
%output
Print[P_Hirshfeld] = 1
end
% maxcore
4000
*xyz 0 1
Pd   0.65462725   0.54512997  -0.53076317 
O    2.19624346   1.52445285   0.30321577 
C    1.63999967   2.67594178   0.27366689 
O    0.43496525   2.71909421  -0.05193153 
C    2.47236910   3.88755665   0.56332654 
H    1.88870604   4.67314149   1.03902370 
H    2.84209325   4.30141704  -0.37822913 
H    3.34837337   3.67406496   1.17727268 
N   -1.21908111  -0.34678085  -1.16722861 
C   -1.25739813  -1.06826922  -2.46874853 
H   -0.92121425  -0.40168178  -3.26577767 
H   -2.29050960  -1.39454558  -2.70078708 
H   -0.60961771  -1.94555229  -2.46117863 
C   -2.15742772   0.78168137  -1.30294079 
H   -2.18884437   1.37412318  -0.39234562 
H   -3.17641352   0.42125085  -1.52351068 
H   -1.82981545   1.40325598  -2.13718306 
C   -1.48738092  -0.84149318   1.33291098 
C   -0.53627005  -1.66370177   1.99831701 
C   -0.34420205  -1.60823628   3.37485704 
C   -1.26478631  -0.90135915   4.11602180 
C   -2.27830445  -0.16986786   3.47787108 
C   -2.29208627   0.13156116   2.11247981 
H   -1.18082956  -0.83014887   5.19537002 
H   -3.13943932   0.16865338   4.05753946 
H    0.07801739  -2.39110718   1.45385557 
H    0.44987109  -2.16289963   3.87668263 
H   -2.76857156   1.26582185   1.95289029 
C   -1.72249350  -1.25708140  -0.11315035 
H   -2.80319277  -1.42072261  -0.24532532 
H   -1.27982245  -2.24382368  -0.29637111 
O    1.78528185  -0.97224580  -1.11804464 
C    2.27157398  -0.77907307  -2.31050527 
O    1.82828493   0.02366776  -3.10956281 
C    3.47957861  -1.63389581  -2.62688491 
H    3.28911738  -2.69423395  -2.46112747 
H    4.32295465  -1.36314159  -1.98661711 
H    3.77840926  -1.48836316  -3.66259503 
*
