! EnGrad PBEh-3c
%output 
xyzfile=True 
end 
%scf 
maxiter 250 
end
%output
Print[P_Hirshfeld] = 1
end
% maxcore
4000
*xyz 0 1
Pd   0.64369447   0.52323015  -0.52795081 
O    2.19083499   1.48876699   0.28728612 
C    1.61988434   2.65479308   0.27153290 
O    0.40776485   2.69952675  -0.04682161 
C    2.48528208   3.85910827   0.56460718 
H    1.92221293   4.65323946   1.03490542 
H    2.86412176   4.24978486  -0.37084524 
H    3.35023481   3.61834203   1.17671670 
N   -1.23929291  -0.36517346  -1.17695863 
C   -1.24732819  -1.13518900  -2.44169166 
H   -0.90326023  -0.49643314  -3.25151461 
H   -2.27967081  -1.46594918  -2.67671071 
H   -0.60527384  -2.00394765  -2.39551014 
C   -2.16729732   0.75850572  -1.33008954 
H   -2.22813722   1.35303045  -0.43549641 
H   -3.18015122   0.38072504  -1.57381116 
H   -1.83120922   1.35368975  -2.17620318 
C   -1.51696385  -0.78751696   1.35218970 
C   -0.61263792  -1.67571281   2.01267410 
C   -0.40407794  -1.64802780   3.39367697 
C   -1.29618664  -0.89795637   4.12042585 
C   -2.24535981  -0.04367737   3.48864027 
C   -2.23657642   0.27712562   2.14461929 
H   -1.21406074  -0.86083965   5.21914329 
H   -3.04778184   0.41626442   4.07110350 
H   -0.03764985  -2.42324108   1.44660236 
H    0.38320849  -2.22163997   3.87638259 
H   -2.43218686   1.06499079   1.89621407 
C   -1.76221014  -1.23625168  -0.07521666 
H   -2.84024482  -1.37957450  -0.23993616 
H   -1.33544803  -2.23224773  -0.23973112 
O    1.79755507  -0.97066221  -1.12276193 
C    2.26455821  -0.74279307  -2.32970236 
O    1.77986030   0.04730392  -3.12283821 
C    3.51127545  -1.55962295  -2.64564673 
H    3.34312132  -2.61778429  -2.50137495 
H    4.32771842  -1.27270725  -1.99911751 
H    3.79298150  -1.37269544  -3.68368434 
*
