! EnGrad PBEh-3c
%output 
xyzfile=True 
end 
%scf 
maxiter 250 
end
%output
Print[P_Hirshfeld] = 1
end
% maxcore
4000
*xyz 0 1
Pd   0.64596671   0.52760916  -0.52917482 
O    2.19012870   1.50018456   0.28880227 
C    1.62567188   2.65497595   0.27174025 
O    0.41377931   2.70222853  -0.04678025 
C    2.48089528   3.86343741   0.56437291 
H    1.91491849   4.65767900   1.03602272 
H    2.85968913   4.26037179  -0.37314445 
H    3.34958886   3.62898960   1.17694948 
N   -1.23435438  -0.36139843  -1.17257969 
C   -1.25070362  -1.12043940  -2.44706237 
H   -0.90638344  -0.47715511  -3.25469251 
H   -2.28106345  -1.45139227  -2.68135629 
H   -0.60508058  -1.99252049  -2.40813121 
C   -2.16622088   0.76228500  -1.32700863 
H   -2.22025047   1.35825508  -0.42539284 
H   -3.17876594   0.38946215  -1.56329674 
H   -1.83122974   1.36477176  -2.16807350 
C   -1.51060866  -0.79638924   1.35220393 
C   -0.59948712  -1.67080315   2.00832870 
C   -0.39333606  -1.63924356   3.38874016 
C   -1.29218242  -0.89759660   4.12194821 
C   -2.25081552  -0.06832351   3.48903814 
C   -2.23631573   0.22689102   2.13855637 
H   -1.20887597  -0.85621484   5.21270366 
H   -3.06530582   0.36964795   4.06989830 
H   -0.01596986  -2.41471894   1.44730843 
H    0.39700267  -2.20919007   3.87577818 
H   -2.50357871   1.11091490   1.90141052 
C   -1.75416352  -1.23836668  -0.08457578 
H   -2.83271682  -1.38739309  -0.24166740 
H   -1.32338723  -2.23294154  -0.24981792 
O    1.79497461  -0.97105900  -1.12364822 
C    2.26526389  -0.75034101  -2.32466625 
O    1.79024676   0.04179761  -3.11905137 
C    3.50314999  -1.57335006  -2.64331297 
H    3.33195620  -2.63425225  -2.49270352 
H    4.32743644  -1.29071175  -1.99562760 
H    3.78990780  -1.39640603  -3.67883513 
*
