! EnGrad PBEh-3c
%output 
xyzfile=True 
end 
%scf 
maxiter 250 
end
%output
Print[P_Hirshfeld] = 1
end
% maxcore
4000
*xyz 0 1
Pd   0.63423143   0.50732116  -0.53533146 
O    2.18782200   1.47247654   0.24814069 
C    1.60508872   2.61422460   0.26752604 
O    0.37920793   2.66249116  -0.02884391 
C    2.48074813   3.82675131   0.56451116 
H    1.94261168   4.63796700   1.03435230 
H    2.87886739   4.20281643  -0.37069491 
H    3.34177107   3.55991751   1.17446135 
N   -1.25923065  -0.37365744  -1.17960123 
C   -1.24090150  -1.18455764  -2.41616785 
H   -0.88387906  -0.57911110  -3.24040587 
H   -2.25803388  -1.52425866  -2.65136425 
H   -0.59479461  -2.04963783  -2.33174038 
C   -2.18240174   0.73963521  -1.36446713 
H   -2.26943798   1.33993932  -0.46806107 
H   -3.17829625   0.34823749  -1.61505391 
H   -1.83951785   1.32532300  -2.20602735 
C   -1.53537799  -0.71815012   1.39407522 
C   -0.70454567  -1.65915570   2.02065506 
C   -0.47880882  -1.66861884   3.40061505 
C   -1.35942234  -0.88665925   4.13421084 
C   -2.21622019   0.08697132   3.53229403 
C   -2.02531663   0.03965970   2.25622831 
H   -1.27131370  -0.91772334   5.23100309 
H   -2.95111136   0.68448428   4.09807583 
H   -0.16770052  -2.41202894   1.42657524 
H    0.32769344  -2.25867109   3.85732595 
H   -2.14490054   1.02745580   1.71372200 
C   -1.79781425  -1.18956707  -0.04400050 
H   -2.86983349  -1.33848533  -0.24799844 
H   -1.36801433  -2.19563137  -0.16626140 
O    1.79878928  -0.97575866  -1.13352641 
C    2.25265641  -0.71180934  -2.33945730 
O    1.74323562   0.06747626  -3.12702687 
C    3.52929793  -1.49140940  -2.66709313 
H    3.38899330  -2.55807062  -2.52830439 
H    4.33213928  -1.19062085  -2.00400676 
H    3.80553941  -1.27743292  -3.69969471 
*
