! EnGrad PBEh-3c
%output 
xyzfile=True 
end 
%scf 
maxiter 250 
end
%output
Print[P_Hirshfeld] = 1
end
% maxcore
4000
*xyz 0 1
Pd   0.64111057   0.51921384  -0.53172248 
O    2.18917418   1.48871878   0.27197622 
C    1.61715442   2.63811275   0.26999638 
O    0.39947343   2.68578492  -0.03935806 
C    2.48083439   3.84825644   0.56443012 
H    1.92637813   4.64952203   1.03533149 
H    2.86762523   4.23655497  -0.37213082 
H    3.34635380   3.60040707   1.17591987 
N   -1.24464836  -0.36647130  -1.17548525 
C   -1.24664744  -1.14697199  -2.43427799 
H   -0.89707096  -0.51934523  -3.24878060 
H   -2.27153365  -1.48154490  -2.66894537 
H   -0.60082417  -2.01615606  -2.37652013 
C   -2.17291664   0.75291236  -1.34250923 
H   -2.24060461   1.35067589  -0.44304926 
H   -3.17857158   0.37240309  -1.58471423 
H   -1.83465942   1.34844758  -2.18377908 
C   -1.52085839  -0.76401332   1.36953058 
C   -0.64296110  -1.66598335   2.01342944 
C   -0.42870531  -1.65139926   3.39365407 
C   -1.32000678  -0.89307065   4.12702257 
C   -2.23649972  -0.00406139   3.50693774 
C   -2.14900278   0.14941335   2.18724987 
H   -1.23471315  -0.88166750   5.22027610 
H   -3.01805133   0.49992949   4.08155837 
H   -0.07875710  -2.41360580   1.43872888 
H    0.36832201  -2.22966567   3.86814252 
H   -2.35515509   1.07637892   1.82374365 
C   -1.77222651  -1.21817305  -0.06778544 
H   -2.84807597  -1.36715470  -0.24428723 
H   -1.34185425  -2.21750232  -0.21524163 
O    1.79655315  -0.97300376  -1.12773589 
C    2.26004683  -0.73439633  -2.33078690 
O    1.77079321   0.05242362  -3.12235169 
C    3.51397019  -1.53944242  -2.65315338 
H    3.35555857  -2.60272775  -2.50743542 
H    4.32938251  -1.24929341  -1.99909496 
H    3.79637627  -1.34717410  -3.68746698 
*
