! EnGrad PBEh-3c
%output 
xyzfile=True 
end 
%scf 
maxiter 250 
end
%output
Print[P_Hirshfeld] = 1
end
% maxcore
4000
*xyz 0 1
Pd   0.63218692   0.50785794  -0.53641176 
O    2.18558798   1.47575892   0.24632304 
C    1.60816868   2.61369376   0.26792062 
O    0.38443749   2.66155484  -0.02521939 
C    2.47721188   3.82344172   0.56366955 
H    1.93959721   4.63855665   1.03542562 
H    2.87858585   4.20326878  -0.37373340 
H    3.33991781   3.55816141   1.17483491 
N   -1.25787350  -0.37410335  -1.17471588 
C   -1.24242481  -1.18227084  -2.41458587 
H   -0.88339637  -0.57818567  -3.24038704 
H   -2.25689616  -1.52386540  -2.65062483 
H   -0.59436652  -2.04891120  -2.33002384 
C   -2.18403447   0.73917815  -1.36903243 
H   -2.26841171   1.34148030  -0.46913375 
H   -3.17817253   0.34921260  -1.61444905 
H   -1.83963021   1.33019728  -2.20573333 
C   -1.48730336  -0.79990264   1.37674482 
C   -0.68991125  -1.67361461   2.02364972 
C   -0.48504344  -1.66414928   3.39523701 
C   -1.36227968  -0.87827625   4.15270525 
C   -2.19819476   0.04684264   3.60000513 
C   -2.07585803   0.13857865   2.19835785 
H   -1.27361661  -0.91801787   5.22712375 
H   -2.94089993   0.68407548   4.09217647 
H   -0.16850821  -2.40724056   1.42921138 
H    0.31919195  -2.25633864   3.85425164 
H   -2.16043042   1.02794700   1.71079361 
C   -1.79699144  -1.18366297  -0.04993481 
H   -2.86951351  -1.33688646  -0.24423795 
H   -1.36758581  -2.19141058  -0.16307951 
O    1.79614479  -0.97463460  -1.13721277 
C    2.25287728  -0.71417917  -2.33636626 
O    1.74606383   0.06516619  -3.12442329 
C    3.52484350  -1.48883415  -2.66889743 
H    3.38842191  -2.55932010  -2.52872897 
H    4.33269905  -1.18952228  -2.00369804 
H    3.80723717  -1.27962878  -3.69932914 
*
