! EnGrad PBEh-3c
%output 
xyzfile=True 
end 
%scf 
maxiter 250 
end
%output
Print[P_Hirshfeld] = 1
end
% maxcore
4000
*xyz 0 1
Pd   0.65281203   0.57780361  -0.53507503 
O    2.23858433   1.53339178   0.33475715 
C    1.64033132   2.72689365   0.27375609 
O    0.48742721   2.76452759  -0.05318307 
C    2.47208420   3.95175704   0.56005639 
H    1.83712070   4.69619213   1.04616185 
H    2.81000464   4.36738394  -0.38829126 
H    3.33602600   3.74502350   1.17481514 
N   -1.21781097  -0.32186440  -1.19068319 
C   -1.25767628  -0.97912539  -2.50180199 
H   -0.95084239  -0.28044914  -3.27146244 
H   -2.28781155  -1.29068423  -2.72426382 
H   -0.63446766  -1.84742652  -2.54976000 
C   -2.13332885   0.82121875  -1.25662378 
H   -2.12488190   1.39578525  -0.36384060 
H   -3.16175482   0.47676456  -1.45065367 
H   -1.82689911   1.47519819  -2.07299632 
C   -1.42455708  -0.91873883   1.27897028 
C   -0.42612270  -1.65510240   2.00259902 
C   -0.27442694  -1.54476386   3.35758328 
C   -1.21546159  -0.87737799   4.08448749 
C   -2.33753775  -0.34927035   3.43424847 
C   -2.31316756  -0.11559544   2.10637013 
H   -1.12645009  -0.77986621   5.17133813 
H   -3.21946056  -0.19805815   4.03883329 
H    0.22931735  -2.34032540   1.47445744 
H    0.51912353  -2.08537375   3.86983304 
H   -3.33455577   1.56971515   2.01592891 
C   -1.66934702  -1.29639512  -0.14348890 
H   -2.74963319  -1.47175754  -0.24348788 
H   -1.20738438  -2.26665793  -0.37769303 
O    1.75599560  -0.97739407  -1.08256556 
C    2.27730904  -0.81345671  -2.29254348 
O    1.90260513  -0.01705869  -3.09497889 
C    3.45451513  -1.75053828  -2.59475528 
H    3.21266862  -2.78868688  -2.41391089 
H    4.30292951  -1.48685494  -1.98045826 
H    3.76594565  -1.64908665  -3.64275150 
*
