! EnGrad PBEh-3c
%output 
xyzfile=True 
end 
%scf 
maxiter 250 
end
%output
Print[P_Hirshfeld] = 1
end
% maxcore
4000
*xyz 0 1
Pd   0.66790019   0.56979912  -0.53002252 
O    2.19367455   1.57759126   0.31731961 
C    1.68039795   2.65995497   0.28054852 
O    0.45356576   2.75060571  -0.05791537 
C    2.46191564   3.93022787   0.56220708 
H    1.85411649   4.69167601   1.04352848 
H    2.82087208   4.35182290  -0.38797352 
H    3.34385487   3.72471969   1.17781901 
N   -1.21232954  -0.32994687  -1.16991527 
C   -1.27033125  -0.99873690  -2.49749743 
H   -0.94019226  -0.31226308  -3.27248608 
H   -2.28969181  -1.32025583  -2.71840207 
H   -0.61691772  -1.88506638  -2.52384492 
C   -2.14846222   0.80284148  -1.28664102 
H   -2.14472557   1.39763888  -0.35289260 
H   -3.16358955   0.46296364  -1.47060535 
H   -1.82814641   1.45333738  -2.09227576 
C   -1.44084333  -0.89358663   1.32631128 
C   -0.47147263  -1.64908275   1.97870000 
C   -0.28166934  -1.56508904   3.36345492 
C   -1.24182441  -0.89147862   4.11168132 
C   -2.31041594  -0.29439691   3.47405638 
C   -2.31327144  -0.04675761   2.07785118 
H   -1.14566672  -0.79645144   5.16568949 
H   -3.20634023  -0.08537439   4.04319804 
H    0.18945405  -2.35662098   1.46499971 
H    0.50354584  -2.10490306   3.87282145 
H   -3.15437214   1.47206154   1.99816128 
C   -1.68499467  -1.28112555  -0.15225916 
H   -2.76500680  -1.45775171  -0.24728376 
H   -1.22611873  -2.25700561  -0.35230285 
O    1.77032339  -0.97674588  -1.10840005 
C    2.27205418  -0.80777134  -2.28703314 
O    1.88018123  -0.00363900  -3.09900073 
C    3.45357116  -1.70972709  -2.61363662 
H    3.23372138  -2.76915324  -2.42372120 
H    4.31596947  -1.45146969  -1.97556951 
H    3.76593140  -1.60365644  -3.64180019 
*
