! EnGrad PBEh-3c
%output 
xyzfile=True 
end 
%scf 
maxiter 250 
end
%output
Print[P_Hirshfeld] = 1
end
% maxcore
4000
*xyz 0 1
Pd   0.66821431   0.57493857  -0.52926248 
O    2.20852564   1.55830167   0.32143708 
C    1.67058840   2.68381738   0.28132094 
O    0.45749987   2.75599814  -0.05907621 
C    2.46578563   3.93913706   0.56122709 
H    1.84816812   4.69321174   1.04427324 
H    2.81716409   4.35787203  -0.38817550 
H    3.34161415   3.73198071   1.17707264 
N   -1.21779780  -0.32658314  -1.18206347 
C   -1.26533016  -0.99298379  -2.50087244 
H   -0.94400662  -0.30064774  -3.27114296 
H   -2.28866372  -1.30885595  -2.71941158 
H   -0.62236104  -1.87214170  -2.53296133 
C   -2.14352247   0.81125383  -1.27491550 
H   -2.13811315   1.39773754  -0.35505304 
H   -3.16223215   0.46727668  -1.46355082 
H   -1.82743426   1.46008887  -2.08562621 
C   -1.43399036  -0.90170043   1.31007325 
C   -0.45617790  -1.65295655   1.98652600 
C   -0.27566839  -1.55560759   3.36299075 
C   -1.23446864  -0.89147737   4.10063913 
C   -2.31939521  -0.30886500   3.46341434 
C   -2.31662375  -0.07352136   2.09079160 
H   -1.13922981  -0.78995024   5.16702285 
H   -3.21046063  -0.12569550   4.03922336 
H    0.20414396  -2.35091898   1.46769694 
H    0.50831152  -2.09729547   3.87105994 
H   -3.21716025   1.50628055   2.00409998 
C   -1.67960770  -1.28664660  -0.14911396 
H   -2.75918510  -1.46248075  -0.24674774 
H   -1.21895595  -2.26074308  -0.36118702 
O    1.76516493  -0.97893448  -1.09838103 
C    2.27486912  -0.81222047  -2.28634008 
O    1.88603022  -0.00375515  -3.10246146 
C    3.45493681  -1.72524805  -2.60591498 
H    3.22613893  -2.77656132  -2.41995648 
H    4.31132684  -1.46432399  -1.97718640 
H    3.76529775  -1.61958269  -3.64195200 
*
