! EnGrad PBEh-3c
%output 
xyzfile=True 
end 
%scf 
maxiter 250 
end
%output
Print[P_Hirshfeld] = 1
end
% maxcore
4000
*xyz 0 1
Pd   0.66600948   0.56992180  -0.53016392 
O    2.20521036   1.55569933   0.31841924 
C    1.66519458   2.68334979   0.27932912 
O    0.45635336   2.74856739  -0.05734375 
C    2.46522798   3.92842657   0.56165473 
H    1.85423252   4.69079580   1.04358738 
H    2.82099371   4.34997806  -0.38696798 
H    3.34324719   3.72393958   1.17733184 
N   -1.21503379  -0.32977867  -1.17553173 
C   -1.26543878  -1.00344951  -2.49599775 
H   -0.94017587  -0.31474185  -3.27168190 
H   -2.29025833  -1.32200949  -2.71758738 
H   -0.61913446  -1.88413804  -2.52245548 
C   -2.14639473   0.80585556  -1.28013692 
H   -2.14606093   1.39477942  -0.35852330 
H   -3.16507384   0.46078256  -1.47253163 
H   -1.82788083   1.45195210  -2.09394356 
C   -1.44394179  -0.89228955   1.31552821 
C   -0.46784275  -1.65349476   1.98730117 
C   -0.28650064  -1.56382941   3.36279043 
C   -1.23873201  -0.89395456   4.10569227 
C   -2.31209042  -0.28894427   3.46633151 
C   -2.31431298  -0.04244307   2.09074778 
H   -1.14602906  -0.79662749   5.17029483 
H   -3.20343560  -0.08025326   4.04286459 
H    0.18585101  -2.35702717   1.46495053 
H    0.50183291  -2.10700516   3.87275902 
H   -3.14585824   1.46956331   1.99712059 
C   -1.68559981  -1.28103080  -0.14579349 
H   -2.76596187  -1.45671418  -0.24705343 
H   -1.22760350  -2.25755480  -0.35136994 
O    1.76905482  -0.97723869  -1.10401058 
C    2.27468214  -0.80861811  -2.28919781 
O    1.87737128   0.00007783  -3.10232397 
C    3.45640012  -1.71014864  -2.60989714 
H    3.23546568  -2.76542228  -2.42540656 
H    4.31421456  -1.44946075  -1.97757808 
H    3.76681069  -1.60033775  -3.64430420 
*
