! EnGrad PBEh-3c
%output 
xyzfile=True 
end 
%scf 
maxiter 250 
end
%output
Print[P_Hirshfeld] = 1
end
% maxcore
4000
*xyz 0 1
Pd   0.66206600   0.56115375  -0.53115732 
O    2.20108772   1.54721689   0.31324085 
C    1.65600557   2.68299394   0.27665603 
O    0.45125255   2.73666916  -0.05509150 
C    2.46591293   3.91175020   0.56226041 
H    1.86558563   4.68562388   1.04214515 
H    2.82790391   4.33468588  -0.38420305 
H    3.34561568   3.70847489   1.17752127 
N   -1.21294303  -0.33535154  -1.16832098 
C   -1.26375713  -1.02402887  -2.48692426 
H   -0.93355828  -0.34188304  -3.27140427 
H   -2.29221116  -1.34614066  -2.71334712 
H   -0.61468340  -1.90518849  -2.50285094 
C   -2.15058739   0.79724028  -1.28780638 
H   -2.16066751   1.38841012  -0.36747614 
H   -3.16999782   0.44814882  -1.48933486 
H   -1.82861646   1.43637170  -2.10894708 
C   -1.46066418  -0.87565053   1.32213915 
C   -0.48934039  -1.65594640   1.99007679 
C   -0.30564614  -1.57902914   3.36486024 
C   -1.24675690  -0.89795678   4.11126119 
C   -2.30002082  -0.25106392   3.47069266 
C   -2.31020774   0.01592990   2.09512366 
H   -1.15801629  -0.80835445   5.17809365 
H   -3.18721735   0.00265811   4.04845128 
H    0.15140754  -2.36832574   1.46050998 
H    0.48749609  -2.12496167   3.87490231 
H   -3.01614862   1.40278750   1.98387147 
C   -1.69716066  -1.27193629  -0.13683651 
H   -2.77833114  -1.44565094  -0.24716803 
H   -1.24409212  -2.25237575  -0.33333215 
O    1.77523944  -0.97484305  -1.11116843 
C    2.27422403  -0.80033313  -2.29609854 
O    1.86126056   0.00750497  -3.10320551 
C    3.46166903  -1.68396023  -2.61577610 
H    3.25298428  -2.74332934  -2.43626333 
H    4.31819094  -1.42167023  -1.97955965 
H    3.77008233  -1.56417800  -3.64962890 
*
