! EnGrad PBEh-3c
%output 
xyzfile=True 
end 
%scf 
maxiter 250 
end
%output
Print[P_Hirshfeld] = 1
end
% maxcore
4000
*xyz 0 1
Pd   2.05339342   0.76798256  -0.53272019 
O   -0.44898289   2.56972310  -0.40227722 
O    0.06376363   0.41048622  -0.23135901 
O    3.92492058   1.55152965  -0.90769649 
O    3.16103201   1.62997895   1.10455479 
C   -0.76196940   1.31500538  -0.27555931 
C   -2.21897939   1.08573643  -0.05116790 
H   -2.67187458   1.88818244   0.52803262 
H   -2.37606655   0.13277741   0.44383390 
H   -2.71929020   1.06525507  -1.02089385 
C    4.14757464   1.69080435   0.33727781 
C    5.53171518   2.14558631   0.68667923 
H    5.62211629   2.28564478   1.76150997 
H    5.77901214   3.08286317   0.18814228 
H    6.26018287   1.40578399   0.35295276 
C    1.98149667   0.11682051  -2.63967837 
C    0.81049592   0.22959292  -3.36574309 
C    2.82507132  -0.96925363  -2.82446752 
C    0.51922771  -0.72602153  -4.32702527 
C    1.37537236  -1.78753926  -4.55751213 
C    2.51539167  -1.92012111  -3.78436552 
H   -0.36917760  -0.60548606  -4.93438111 
H    1.15828260  -2.51603069  -5.32908629 
H    0.62068359   3.01370629  -1.36155190 
H    0.12487869   1.05530457  -3.23642839 
H    3.70150778  -1.15731859  -2.21492881 
H    3.19181386  -2.74751096  -3.95279868 
*
