! EnGrad PBEh-3c
%output 
xyzfile=True 
end 
%scf 
maxiter 250 
end
%output
Print[P_Hirshfeld] = 1
end
% maxcore
4000
*xyz 0 1
Pd   2.06658379   0.97751261  -0.80514087 
O   -0.48941798   2.56015890  -0.70277983 
O    0.13923718   0.47747367  -0.36853280 
O    3.94281103   1.62979862  -0.90195123 
O    3.26889645   1.41788900   1.18080488 
C   -0.72061390   1.34793235  -0.36408686 
C   -2.16568655   1.10922747  -0.07978398 
H   -2.63968034   1.91305048   0.46052565 
H   -2.32556923   0.17316983   0.41184884 
H   -2.62734207   1.04965361  -1.05325091 
C    4.16407220   1.66310263   0.36216660 
C    5.55368107   2.05942495   0.72984045 
H    5.71663603   2.05573140   1.80231407 
H    5.80918604   3.03171196   0.30518770 
H    6.19862686   1.32339417   0.26245138 
C    1.89041439   0.16301264  -2.58718753 
C    0.74077778   0.25880463  -3.35893085 
C    2.86292437  -0.79448848  -2.86908710 
C    0.46760415  -0.74065697  -4.27731149 
C    1.32800693  -1.81313525  -4.42441820 
C    2.54285978  -1.80858483  -3.75823839 
H   -0.48024550  -0.72609274  -4.78341857 
H    1.04630149  -2.65200166  -5.04395057 
H    0.35832731   2.61651364  -1.14296991 
H    0.05732426   1.09863880  -3.25995399 
H    3.86120376  -0.72595209  -2.43314429 
H    3.22312391  -2.63753321  -3.84199973 
*
