! EnGrad PBEh-3c
%output 
xyzfile=True 
end 
%scf 
maxiter 250 
end
%output
Print[P_Hirshfeld] = 1
end
% maxcore
4000
*xyz 0 1
Pd   2.08471029   1.00560875  -0.80385017 
O   -0.50562709   2.56391529  -0.76092672 
O    0.13744773   0.49292987  -0.39544906 
O    3.94943416   1.64128207  -0.90244532 
O    3.27052007   1.38515328   1.16185957 
C   -0.72336536   1.35192600  -0.38057111 
C   -2.16135762   1.10769653  -0.08527665 
H   -2.62741052   1.92513469   0.45236590 
H   -2.31392030   0.16044141   0.42051160 
H   -2.61899845   1.04818923  -1.06938837 
C    4.17426414   1.65556980   0.36228641 
C    5.56328442   2.04256548   0.73529878 
H    5.72963675   2.01932310   1.80890144 
H    5.81346132   3.02210135   0.32656518 
H    6.19761257   1.30917772   0.24846073 
C    1.88698282   0.19433920  -2.58748525 
C    0.72641645   0.25922953  -3.35340149 
C    2.86470663  -0.75967479  -2.87722422 
C    0.45226646  -0.75351926  -4.26417649 
C    1.32431399  -1.81613318  -4.40634612 
C    2.54524763  -1.79672437  -3.74888952 
H   -0.50025912  -0.74190925  -4.76966146 
H    1.03141871  -2.67053915  -4.99109764 
H    0.33093161   2.56242162  -1.10616159 
H    0.04258902   1.10275994  -3.25838861 
H    3.87428044  -0.66018852  -2.46281885 
H    3.23824329  -2.61948746  -3.83390620 
*
