! EnGrad PBEh-3c
%output 
xyzfile=True 
end 
%scf 
maxiter 250 
end
%output
Print[P_Hirshfeld] = 1
end
% maxcore
4000
*xyz 0 1
Pd   2.12306972   0.99924368  -0.78043499 
O   -0.54662147   2.58939585  -0.86846716 
O    0.10305334   0.49038189  -0.39590299 
O    3.95540101   1.65300294  -0.91522734 
O    3.26109199   1.33552955   1.11195201 
C   -0.75789257   1.36713664  -0.40792287 
C   -2.17899078   1.07658626  -0.09433837 
H   -2.60622807   1.93233852   0.43841526 
H   -2.31118801   0.12333492   0.44531621 
H   -2.64176382   1.03457586  -1.09667203 
C    4.17446935   1.67007116   0.34843616 
C    5.58015873   1.99870928   0.74063582 
H    5.74716936   1.96061652   1.81542814 
H    5.81490581   2.99076763   0.36344301 
H    6.23239713   1.28717895   0.22752197 
C    1.90191114   0.29482175  -2.59653036 
C    0.72128078   0.27700151  -3.33969966 
C    2.86166348  -0.66907266  -2.90651298 
C    0.42109650  -0.77214511  -4.21603639 
C    1.31883495  -1.82582312  -4.35608423 
C    2.55382881  -1.76884493  -3.71642816 
H   -0.53270502  -0.77319414  -4.75939113 
H    1.02512015  -2.70267987  -4.91105315 
H    0.42234472   2.54941612  -1.08341532 
H    0.01191540   1.08997215  -3.25549524 
H    3.85556664  -0.58242588  -2.50520749 
H    3.27198517  -2.58761329  -3.83351262 
*
