! EnGrad PBEh-3c
%output 
xyzfile=True 
end 
%scf 
maxiter 250 
end
%output
Print[P_Hirshfeld] = 1
end
% maxcore
4000
*xyz 0 1
Pd   2.11766406   1.00804952  -0.79543826 
O   -0.55420064   2.53709263  -0.89705397 
O    0.09681567   0.51352414  -0.39898176 
O    3.96776434   1.67532510  -0.92458967 
O    3.26341728   1.29864035   1.10272436 
C   -0.76364623   1.37921938  -0.44776801 
C   -2.18583194   1.07348317  -0.10673693 
H   -2.59905002   1.92761770   0.42377340 
H   -2.30427046   0.12211339   0.44582984 
H   -2.64856074   1.02182166  -1.09939862 
C    4.18520887   1.65567252   0.33859079 
C    5.58535437   1.96940697   0.74501553 
H    5.76162492   1.90883779   1.81763102 
H    5.82151566   2.97119568   0.39029140 
H    6.24108537   1.27154043   0.21114218 
C    1.89377080   0.33596432  -2.61395833 
C    0.70514458   0.28965848  -3.33666793 
C    2.86149321  -0.61707746  -2.92738849 
C    0.40699017  -0.77778303  -4.18659151 
C    1.31007672  -1.82867869  -4.30997900 
C    2.56029505  -1.73691782  -3.70252978 
H   -0.54577431  -0.80059373  -4.72923353 
H    1.01740001  -2.72993690  -4.84371143 
H    0.44583096   2.53926486  -1.09300793 
H   -0.01383307   1.08945544  -3.25550623 
H    3.86636140  -0.50600993  -2.53865741 
H    3.28610587  -2.54715040  -3.81842156 
*
