! EnGrad PBEh-3c
%output 
xyzfile=True 
end 
%scf 
maxiter 250 
end
%output
Print[P_Hirshfeld] = 1
end
% maxcore
4000
*xyz 0 1
Pd   2.08402055   0.81018121  -0.67026705 
O   -0.35783499   2.64069131  -0.51701961 
O    0.05066963   0.37375994  -0.23758239 
O    3.89246437   1.53797372  -0.89290731 
O    3.20147733   1.57902332   1.16412205 
C   -0.71531238   1.31703600  -0.25864946 
C   -2.22684452   1.07533991  -0.05718732 
H   -2.67170057   1.88739058   0.51555604 
H   -2.38522530   0.12934501   0.44024523 
H   -2.71605717   1.05738122  -1.03053814 
C    4.12564702   1.74293506   0.31642275 
C    5.53660508   2.11365454   0.71707942 
H    5.64326620   2.24369305   1.76414310 
H    5.77738549   3.07085827   0.20442735 
H    6.25779439   1.39162096   0.33486660 
C    1.96167124   0.15211155  -2.55480088 
C    0.81253854   0.23741496  -3.38474153 
C    2.83863233  -0.93348857  -2.84929141 
C    0.50064747  -0.72422875  -4.32624307 
C    1.36394936  -1.80245381  -4.52915306 
C    2.52316461  -1.90433504  -3.78237507 
H   -0.39334198  -0.63432878  -4.90323124 
H    1.14070139  -2.53819188  -5.28349176 
H    0.51872631   2.94612967  -1.29256555 
H    0.11286403   1.06387813  -3.24418572 
H    3.73176113  -1.08279638  -2.25847051 
H    3.19371593  -2.73737818  -3.92912488 
*
