! EnGrad PBEh-3c
%output 
xyzfile=True 
end 
%scf 
maxiter 250 
end
%output
Print[P_Hirshfeld] = 1
end
% maxcore
4000
*xyz 0 1
Pd   2.08879987   0.87147423  -0.80469759 
O   -0.24127877   2.63078800  -0.68900075 
O    0.04980317   0.38189765  -0.25498830 
O    3.87435408   1.56682868  -0.90187139 
O    3.25634117   1.49867280   1.20700576 
C   -0.65646219   1.36327974  -0.30369413 
C   -2.18024290   1.10232529  -0.06808576 
H   -2.67536025   1.88673986   0.49226689 
H   -2.39221337   0.12821592   0.43194689 
H   -2.69808767   1.04411288  -1.04711124 
C    4.11672134   1.74708691   0.35755178 
C    5.53387714   2.09569123   0.70369047 
H    5.68028574   2.16025040   1.79218386 
H    5.78333726   3.03549829   0.25058659 
H    6.24268018   1.35871171   0.29968042 
C    1.92538832   0.15617977  -2.54603638 
C    0.81365219   0.27194857  -3.36889476 
C    2.84503170  -0.84089668  -2.86231596 
C    0.50144425  -0.72881188  -4.30018600 
C    1.33653666  -1.81829037  -4.47353158 
C    2.53220333  -1.85214842  -3.77046728 
H   -0.44716757  -0.68525381  -4.84856586 
H    1.10359602  -2.59087776  -5.19249048 
H    0.31647665   2.80472452  -1.15480932 
H    0.09287011   1.07456652  -3.26411389 
H    3.79612408  -0.93651191  -2.34632851 
H    3.20125938  -2.71034616  -3.88186300 
*
