! EnGrad PBEh-3c
%output 
xyzfile=True 
end 
%scf 
maxiter 250 
end
%output
Print[P_Hirshfeld] = 1
end
% maxcore
4000
*xyz 0 1
Pd   2.08258823   0.86465728  -0.77980449 
O   -0.38509226   2.57485995  -0.57306511 
O    0.05966749   0.39181739  -0.25694751 
O    3.88740094   1.56674797  -0.90661937 
O    3.24829720   1.51218249   1.19497750 
C   -0.66658567   1.37394518  -0.31496842 
C   -2.17424947   1.10809924  -0.06813919 
H   -2.67483302   1.88858801   0.49589882 
H   -2.38535830   0.13383845   0.43101259 
H   -2.69591818   1.04729650  -1.04283576 
C    4.12160269   1.73578904   0.36040353 
C    5.53302940   2.10180633   0.70110835 
H    5.67497685   2.17128375   1.79051943 
H    5.78448547   3.04147601   0.24582445 
H    6.24115616   1.36308285   0.30510161 
C    1.92671684   0.14193146  -2.55939058 
C    0.81034883   0.26793848  -3.36417898 
C    2.84259065  -0.85425245  -2.85433579 
C    0.50528888  -0.72682885  -4.30295753 
C    1.33986764  -1.81350406  -4.48209514 
C    2.53158885  -1.85674224  -3.77256569 
H   -0.43927552  -0.67710882  -4.85634947 
H    1.10649063  -2.58591499  -5.20410642 
H    0.44056956   2.83735640  -1.24727135 
H    0.09630389   1.07231378  -3.26062477 
H    3.78799460  -0.95321202  -2.33421641 
H    3.19998110  -2.71125499  -3.88855887 
*
