! EnGrad PBEh-3c
%output 
xyzfile=True 
end 
%scf 
maxiter 250 
end
%output
Print[P_Hirshfeld] = 1
end
% maxcore
4000
*xyz 0 1
Pd   2.06907550   0.90608688  -0.82648441 
O   -0.45754978   2.59419724  -0.59520763 
O    0.10448603   0.41405728  -0.29353819 
O    3.90674244   1.58881420  -0.90564523 
O    3.26749220   1.47407602   1.21263059 
C   -0.70775022   1.33141821  -0.32192809 
C   -2.14830402   1.11316334  -0.07740354 
H   -2.67061127   1.89598142   0.48402017 
H   -2.36516495   0.16111055   0.41547422 
H   -2.66999983   1.04652070  -1.04164738 
C    4.12852692   1.71725166   0.36057446 
C    5.53723515   2.08295781   0.71774984 
H    5.69246929   2.12666607   1.79327202 
H    5.79380135   3.03914434   0.26602743 
H    6.22221187   1.34865603   0.28832536 
C    1.90556805   0.13809279  -2.55803252 
C    0.78839625   0.26873902  -3.36474976 
C    2.85307622  -0.83257027  -2.86060543 
C    0.49351837  -0.72141658  -4.29435413 
C    1.33317531  -1.81515587  -4.45559627 
C    2.53977889  -1.83283948  -3.76816090 
H   -0.45425638  -0.69938897  -4.82280824 
H    1.08179553  -2.61547643  -5.14946612 
H    0.44626566   2.75677024  -1.23929096 
H    0.08392468   1.08168548  -3.26421729 
H    3.82023595  -0.86541305  -2.37623094 
H    3.20261563  -2.68377255  -3.86539808 
*
