! EnGrad PBEh-3c
%output 
xyzfile=True 
end 
%scf 
maxiter 250 
end
%output
Print[P_Hirshfeld] = 1
end
% maxcore
4000
*xyz 0 1
Pd   2.05346672   0.93322772  -0.79830719 
O   -0.47945553   2.60468559  -0.63367779 
O    0.13911148   0.44778934  -0.33134781 
O    3.93179907   1.60931130  -0.90293310 
O    3.26085658   1.45888211   1.19936802 
C   -0.74615190   1.30165790  -0.32430665 
C   -2.16425928   1.10055833  -0.07491940 
H   -2.65626981   1.90242653   0.47454169 
H   -2.34035805   0.18508119   0.40477482 
H   -2.64621037   1.05077068  -1.03803058 
C    4.14977109   1.68429655   0.35495836 
C    5.54401840   2.07382968   0.72792893 
H    5.69889748   2.10380381   1.79129923 
H    5.80218916   3.04376048   0.27704084 
H    6.20794939   1.34199211   0.28084377 
C    1.90169547   0.13976403  -2.57976515 
C    0.76086965   0.25781674  -3.36736266 
C    2.85992979  -0.83405121  -2.86243824 
C    0.48137417  -0.72549935  -4.29081989 
C    1.33468499  -1.80974145  -4.44634979 
C    2.54138085  -1.82687890  -3.76619769 
H   -0.45522036  -0.70543773  -4.80642231 
H    1.06823253  -2.62776322  -5.11268437 
H    0.42899960   2.70101038  -1.20606931 
H    0.07495756   1.08967711  -3.26043537 
H    3.83422827  -0.81613419  -2.39291128 
H    3.20745590  -2.66183445  -3.85742366 
*
