! EnGrad PBEh-3c
%output 
xyzfile=True 
end 
%scf 
maxiter 250 
end
%output
Print[P_Hirshfeld] = 1
end
% maxcore
4000
*xyz 1 1
Sc   1.38435915  -0.93455063  -1.74828907 
C    0.31052328  -0.53154856   0.21598838 
N   -0.46184474  -1.35500779   0.94121548 
C   -0.76241651  -0.78975156   2.14399955 
C   -0.10036845   0.38498826   2.19716583 
N    0.55750808   0.52509974   1.01451199 
C    1.40579269   1.65083040   0.69537767 
H    1.40843726   2.44759519   1.43597242 
H    1.05836372   2.11236259  -0.22557939 
H    2.44346224   1.34267122   0.57918234 
C   -0.95552314  -2.65708637   0.54075090 
H   -0.61441950  -2.89824400  -0.46329099 
H   -2.04317130  -2.65360323   0.55021658 
H   -0.59355426  -3.42503098   1.22151832 
H   -1.39250549  -1.25975734   2.87910240 
H   -0.07883676   1.10150965   2.99929545 
C   -0.13919173   1.65810570  -2.88272961 
H   -0.79861308   1.68929599  -3.76266021 
H    0.46507441   2.56697395  -2.96686660 
H   -0.80459861   1.78954865  -2.02139244 
H   -0.28845253  -0.76439034  -3.34349426 
*
