! EnGrad PBEh-3c
%output 
xyzfile=True 
end 
%scf 
maxiter 250 
end
%output
Print[P_Hirshfeld] = 1
end
% maxcore
4000
*xyz 1 1
Sc   1.18190766  -0.80199814  -1.95417862 
C    0.40034841  -0.57673837   0.25336016 
N   -0.47260165  -1.34270315   0.92914718 
C   -0.77810042  -0.78383746   2.14387034 
C   -0.13487743   0.40132279   2.19278090 
N    0.57040760   0.51956111   1.00774962 
C    1.42305034   1.64404411   0.65388465 
H    1.43455317   2.36571137   1.45541867 
H    1.03921909   2.12558059  -0.26767505 
H    2.45633981   1.30575534   0.49891498 
C   -0.96416935  -2.65236197   0.54585444 
H   -0.60569067  -2.92094395  -0.44797738 
H   -2.05170875  -2.65571719   0.50895625 
H   -0.63090457  -3.41520405   1.25063989 
H   -1.43913672  -1.24320359   2.86812790 
H   -0.10502657   1.15774213   2.96286601 
C   -0.20979964   1.68493155  -2.83571585 
H   -0.83185297   1.59755443  -3.71940416 
H    0.44441097   2.54599384  -2.92110053 
H   -0.83352754   1.70417876  -1.94121611 
H    0.10863239  -0.65613140  -3.18600211 
*
