! EnGrad PBEh-3c
%output 
xyzfile=True 
end 
%scf 
maxiter 250 
end
%output
Print[P_Hirshfeld] = 1
end
% maxcore
4000
*xyz 1 1
Sc   1.19439631  -0.79590632  -1.94099038 
C    0.39741755  -0.57772616   0.24694146 
N   -0.46987426  -1.34545919   0.93302617 
C   -0.78155649  -0.78131015   2.14287201 
C   -0.13154878   0.40420214   2.18819654 
N    0.57007467   0.51668912   1.01265571 
C    1.42260894   1.64124255   0.64688296 
H    1.43699421   2.36625075   1.45642030 
H    1.04063302   2.12467977  -0.26209919 
H    2.45344404   1.30533270   0.49592861 
C   -0.96437330  -2.65330902   0.54461452 
H   -0.60482889  -2.92163353  -0.44625853 
H   -2.05214928  -2.65500088   0.50829792 
H   -0.63252512  -3.41434189   1.25135551 
H   -1.43908618  -1.24154480   2.86579721 
H   -0.10660693   1.15779444   2.96064586 
C   -0.20768232   1.67553401  -2.82889282 
H   -0.83726650   1.59711841  -3.72168250 
H    0.44203689   2.54356123  -2.92019762 
H   -0.83393929   1.70294962  -1.94084049 
H    0.10535888  -0.64547788  -3.19396780 
*
