! EnGrad PBEh-3c
%output 
xyzfile=True 
end 
%scf 
maxiter 250 
end
%output
Print[P_Hirshfeld] = 1
end
% maxcore
4000
*xyz 1 1
Sc   1.20042116  -0.75326092  -1.93585478 
C    0.40084488  -0.58808953   0.24092341 
N   -0.46235719  -1.35279266   0.94049953 
C   -0.79263009  -0.76923432   2.13659626 
C   -0.13199256   0.41333824   2.17673656 
N    0.57753422   0.50668175   1.01499714 
C    1.42300065   1.63193665   0.63038582 
H    1.45148055   2.34902383   1.45779766 
H    1.03903238   2.12626514  -0.25579234 
H    2.44753181   1.29564042   0.46901845 
C   -0.96751303  -2.65492432   0.54445613 
H   -0.59927870  -2.92881243  -0.43892360 
H   -2.05512502  -2.65258646   0.49823681 
H   -0.64558198  -3.41005305   1.25925313 
H   -1.44877946  -1.23275730   2.85665152 
H   -0.11666673   1.16883672   2.94549468 
C   -0.21653061   1.64641116  -2.80838242 
H   -0.85874338   1.57985026  -3.71387782 
H    0.42889553   2.52861784  -2.90830527 
H   -0.84212059   1.68209240  -1.92259708 
H    0.17055332  -0.58142170  -3.18753402 
*
