! EnGrad PBEh-3c
%output 
xyzfile=True 
end 
%scf 
maxiter 250 
end
%output
Print[P_Hirshfeld] = 1
end
% maxcore
4000
*xyz 0 1
Pd   2.00272395   0.81525123  -0.48172213 
O   -0.38129144   2.45335444  -0.33700784 
O    0.04852083   0.29023782  -0.21801670 
O    3.80047483   1.81998782  -0.80955195 
O    3.23490697   1.27392104   1.18733351 
C   -0.75952846   1.21945911  -0.26366950 
C   -2.23280487   1.04814159  -0.10414255 
H   -2.68400350   1.88439014   0.42608879 
H   -2.43243162   0.11613234   0.41504213 
H   -2.68622780   1.00527295  -1.09554101 
C    4.14190971   1.60967043   0.39106492 
C    5.56234792   1.98288366   0.68528446 
H    5.74121703   1.93457369   1.76193050 
H    5.81649121   2.97860711   0.32869346 
H    6.23145718   1.28077320   0.18580957 
C    2.05059051   0.46463662  -2.92368252 
C    0.76906671   0.31977463  -3.41125247 
C    2.91998532  -0.61613014  -3.01797367 
C    0.41370900  -0.80740316  -4.13632629 
C    1.30766700  -1.84682388  -4.29460607 
C    2.50858457  -1.80535267  -3.60598863 
H   -0.53346917  -0.81262375  -4.66303627 
H    1.06372935  -2.68441956  -4.93765303 
H    0.69918160   3.17113669  -1.87481217 
H    0.03774866   1.12085479  -3.36496464 
H    3.94207071  -0.58690787  -2.66118225 
H    3.21896739  -2.61591467  -3.72677404 
*
