! EnGrad PBEh-3c
%output 
xyzfile=True 
end 
%scf 
maxiter 250 
end
%output
Print[P_Hirshfeld] = 1
end
% maxcore
4000
*xyz 0 1
Pd   1.87298193   1.30639845  -0.94643241 
O   -0.29093913   2.46477708  -0.77412763 
O    0.10874977   0.37437596  -0.35889101 
O    3.75998339   1.82803974  -0.84326382 
O    3.35516822   0.94323808   1.16799553 
C   -0.69235901   1.30540626  -0.37766165 
C   -2.15441017   1.03997512  -0.12390812 
H   -2.68119848   1.85029217   0.35770393 
H   -2.42037696   0.10502499   0.38665426 
H   -2.58401113   0.93041377  -1.11828896 
C    4.10751603   1.47945287   0.36578426 
C    5.54085745   1.82001106   0.66246370 
H    5.79196582   1.63304383   1.70647456 
H    5.79471022   2.84831733   0.40608327 
H    6.15025738   1.16405558   0.04494205 
C    1.83149227   0.52860016  -2.74352753 
C    0.61781199   0.40317939  -3.41411362 
C    2.91166882  -0.29491985  -3.02889172 
C    0.36815502  -0.78665852  -4.08269802 
C    1.32854934  -1.79233742  -4.07801254 
C    2.60782094  -1.52229689  -3.60925981 
H   -0.63372210  -0.99014811  -4.44210656 
H    1.05416704  -2.80814024  -4.36784771 
H    0.89191979   2.34211248  -1.60012805 
H   -0.13507221   1.19158477  -3.38573373 
H    3.94285379  -0.02752072  -2.78811933 
H    3.34504673  -2.31158733  -3.53856966 
*
