! EnGrad PBEh-3c
%output 
xyzfile=True 
end 
%scf 
maxiter 250 
end
%output
Print[P_Hirshfeld] = 1
end
% maxcore
4000
*xyz 0 1
Pd   1.94212724   1.26779632  -0.81390266 
O   -0.43387949   2.47425016  -0.72102536 
O    0.13188887   0.35888323  -0.41849986 
O    3.78327779   1.87600807  -0.84870279 
O    3.30856821   0.89289830   1.05149244 
C   -0.72934443   1.30301283  -0.39426230 
C   -2.17144618   1.03230043  -0.14068828 
H   -2.67672407   1.86428609   0.35244069 
H   -2.35904751   0.10696731   0.39054369 
H   -2.58671919   0.92169746  -1.14459412 
C    4.11433737   1.49814610   0.33867259 
C    5.54790953   1.77494946   0.64278480 
H    5.79405837   1.59143164   1.68071561 
H    5.76432782   2.80970890   0.40325473 
H    6.18062345   1.14905082   0.00710850 
C    1.82400829   0.62080746  -2.79313012 
C    0.58551582   0.39950885  -3.39190772 
C    2.87932614  -0.24175512  -3.01761043 
C    0.35005938  -0.80824346  -4.03572638 
C    1.33481673  -1.78120673  -4.04600162 
C    2.60054480  -1.48488815  -3.57935234 
H   -0.63363197  -1.01270840  -4.43096164 
H    1.08502641  -2.78778442  -4.27906815 
H    1.06915019   2.22723374  -1.66120528 
H   -0.17569540   1.16748581  -3.37530326 
H    3.87931742   0.03546120  -2.71807677 
H    3.38830332  -2.22764300  -3.56332300 
*
