! EnGrad PBEh-3c
%output 
xyzfile=True 
end 
%scf 
maxiter 250 
end
%output
Print[P_Hirshfeld] = 1
end
% maxcore
4000
*xyz 0 1
Pd   1.93375334   1.25105961  -0.80458884 
O   -0.47766455   2.48733540  -0.72333188 
O    0.15041565   0.37919342  -0.45296844 
O    3.79357095   1.91072274  -0.85890451 
O    3.29047758   0.86030526   0.99765299 
C   -0.73895933   1.31548330  -0.41555435 
C   -2.17536407   1.01947855  -0.14914762 
H   -2.67154238   1.86296728   0.34366934 
H   -2.33754042   0.10017533   0.39443909 
H   -2.58791092   0.91195599  -1.15414683 
C    4.13001773   1.48755233   0.31111314 
C    5.54985566   1.74673221   0.63937747 
H    5.79908150   1.55276391   1.67275834 
H    5.75421669   2.78951352   0.40628909 
H    6.18373008   1.13682462  -0.01506366 
C    1.79122896   0.65378909  -2.77898844 
C    0.56825398   0.40889284  -3.38360126 
C    2.86496319  -0.19855971  -3.00893847 
C    0.34331310  -0.80792644  -4.01210972 
C    1.34078606  -1.76527202  -4.00527595 
C    2.61335481  -1.44636960  -3.57052239 
H   -0.64133752  -1.03285253  -4.41429083 
H    1.09407294  -2.80336850  -4.21987996 
H    1.16781381   2.13161233  -1.67212606 
H   -0.20943279   1.16014704  -3.36552510 
H    3.85708167   0.09183692  -2.69174378 
H    3.41267754  -2.17416620  -3.56591792 
*
