! EnGrad PBEh-3c
%output 
xyzfile=True 
end 
%scf 
maxiter 250 
end
%output
Print[P_Hirshfeld] = 1
end
% maxcore
4000
*xyz 0 1
Pd   1.92882461   1.20687790  -0.80707830 
O   -0.48409266   2.49203239  -0.71775448 
O    0.15706845   0.39419442  -0.45470496 
O    3.79416947   1.92508781  -0.86258975 
O    3.28901074   0.86950860   0.97687888 
C   -0.73752001   1.34115067  -0.42858263 
C   -2.17865973   1.00712421  -0.15173751 
H   -2.66590648   1.85735629   0.33930408 
H   -2.33596240   0.09304555   0.39910082 
H   -2.59824423   0.90878759  -1.15373429 
C    4.13260759   1.47861011   0.29186472 
C    5.55509254   1.74248603   0.64498095 
H    5.80062296   1.54444167   1.67756001 
H    5.75580851   2.78792347   0.40641905 
H    6.18244947   1.13727585  -0.01502611 
C    1.77749272   0.64825503  -2.75538851 
C    0.56567347   0.41894558  -3.38327483 
C    2.86040482  -0.18794353  -3.00018497 
C    0.34348783  -0.80213570  -4.00827774 
C    1.33988654  -1.77194944  -3.98921971 
C    2.62237433  -1.43317621  -3.57130816 
H   -0.63995980  -1.03426384  -4.41311859 
H    1.09739314  -2.80697540  -4.22350794 
H    1.18777521   2.13371875  -1.68738028 
H   -0.22054699   1.15461915  -3.35563397 
H    3.85415190   0.09259210  -2.67907836 
H    3.41640367  -2.16660391  -3.57339732 
*
