! EnGrad PBEh-3c
%output 
xyzfile=True 
end 
%scf 
maxiter 250 
end
%output
Print[P_Hirshfeld] = 1
end
% maxcore
4000
*xyz 0 1
Pd   1.93574783   1.15608456  -0.80694373 
O   -0.49753752   2.51857303  -0.71666368 
O    0.15895466   0.41594332  -0.45757999 
O    3.79047033   1.94219411  -0.87101770 
O    3.28222190   0.87431575   0.94528563 
C   -0.73985548   1.35658755  -0.44065946 
C   -2.17875943   0.99443385  -0.15855856 
H   -2.65742944   1.84762113   0.33229457 
H   -2.32945016   0.08191107   0.40591038 
H   -2.61560491   0.90208917  -1.15424546 
C    4.13969101   1.47569858   0.26427879 
C    5.56011418   1.73481844   0.64818522 
H    5.80266577   1.52933209   1.68374466 
H    5.75710783   2.78140168   0.40818075 
H    6.18459185   1.13665276  -0.01613104 
C    1.75870675   0.64391568  -2.72680423 
C    0.55750200   0.42865879  -3.38132744 
C    2.85328007  -0.17124803  -2.98557166 
C    0.34492878  -0.80013065  -4.00107287 
C    1.34003036  -1.77702137  -3.96654709 
C    2.62653460  -1.41519364  -3.57152130 
H   -0.63579577  -1.03626204  -4.40970798 
H    1.10523079  -2.80728007  -4.22327751 
H    1.22691315   2.12606502  -1.70826897 
H   -0.24068817   1.14708995  -3.33990622 
H    3.84609413   0.09739399  -2.65640688 
H    3.42564897  -2.15008542  -3.58623885 
*
