! EnGrad PBEh-3c
%output 
xyzfile=True 
end 
%scf 
maxiter 250 
end
%output
Print[P_Hirshfeld] = 1
end
% maxcore
4000
*xyz 0 1
Pd   1.93070633   1.19307231  -0.80704173 
O   -0.48774696   2.49924612  -0.71745800 
O    0.15758112   0.40010576  -0.45548640 
O    3.79316405   1.92973729  -0.86488046 
O    3.28716554   0.87081518   0.96829186 
C   -0.73815479   1.34534640  -0.43186510 
C   -2.17868683   1.00367498  -0.15359147 
H   -2.66360243   1.85471028   0.33739890 
H   -2.33419238   0.09001920   0.40095165 
H   -2.60296285   0.90696696  -1.15387322 
C    4.13453285   1.47781876   0.28436689 
C    5.55645742   1.74040198   0.64585187 
H    5.80117820   1.54033490   1.67924100 
H    5.75616167   2.78615085   0.40689788 
H    6.18303177   1.13710650  -0.01532643 
C    1.77238671   0.64707560  -2.74761933 
C    0.56345247   0.42158562  -3.38274553 
C    2.85846832  -0.18340571  -2.99621308 
C    0.34387948  -0.80159073  -4.00631946 
C    1.33992563  -1.77332799  -3.98305731 
C    2.62350509  -1.42828856  -3.57136609 
H   -0.63882802  -1.03480695  -4.41219159 
H    1.09952341  -2.80705821  -4.22344531 
H    1.19841287   2.13163847  -1.69305781 
H   -0.22602135   1.15257272  -3.35135918 
H    3.85196181   0.09389725  -2.67291627 
H    3.41891654  -2.16211420  -3.57688764 
*
