! EnGrad PBEh-3c
%output 
xyzfile=True 
end 
%scf 
maxiter 250 
end
%output
Print[P_Hirshfeld] = 1
end
% maxcore
4000
*xyz 0 1
Pd   2.01881583   0.88647779  -0.60194616 
O   -0.37149824   2.46247279  -0.38853543 
O    0.06662546   0.23913729  -0.21871453 
O    3.75910604   1.77059162  -0.82534976 
O    3.27667151   1.23746415   1.22220850 
C   -0.73267685   1.30557818  -0.24907865 
C   -2.23610842   1.02660408  -0.10704686 
H   -2.67934556   1.88063378   0.42112461 
H   -2.44461457   0.11051588   0.41469623 
H   -2.68674734   0.99937552  -1.09911576 
C    4.12595399   1.66291568   0.38786657 
C    5.56252884   1.95456657   0.71751915 
H    5.74985725   1.91690386   1.75958182 
H    5.80784821   2.96918728   0.33177840 
H    6.22720681   1.27370075   0.17895858 
C    2.01151120   0.45228105  -2.85563194 
C    0.74905982   0.34394101  -3.43470663 
C    2.93432567  -0.59947284  -3.00852630 
C    0.41242062  -0.79976755  -4.15229584 
C    1.29668951  -1.85787188  -4.26520197 
C    2.53007045  -1.78145374  -3.63887605 
H   -0.54150655  -0.82515051  -4.64442687 
H    1.06145906  -2.69350533  -4.90665280 
H    0.69987360   3.11241183  -1.84355497 
H    0.03360301   1.12149253  -3.35907602 
H    3.94837990  -0.54902392  -2.67349034 
H    3.22242709  -2.60550661  -3.70540771 
*
