! EnGrad PBEh-3c
%output 
xyzfile=True 
end 
%scf 
maxiter 250 
end
%output
Print[P_Hirshfeld] = 1
end
% maxcore
4000
*xyz 0 1
Pd   1.98956153   0.98052116  -0.78671295 
O   -0.33508261   2.51254448  -0.48180360 
O    0.05054076   0.30643706  -0.23836871 
O    3.73248412   1.74202815  -0.83325281 
O    3.33989167   1.19132521   1.23272842 
C   -0.67873286   1.24626505  -0.24490873 
C   -2.20979393   1.03550637  -0.10333592 
H   -2.67811160   1.86477132   0.40614835 
H   -2.46014632   0.09489023   0.41505536 
H   -2.67787556   0.98489852  -1.10746503 
C    4.10516289   1.65372797   0.40511385 
C    5.55062966   1.95348049   0.69807176 
H    5.76589311   1.86575375   1.78175539 
H    5.80204978   2.93058261   0.35445680 
H    6.20666647   1.25293529   0.16214466 
C    1.94672948   0.43122268  -2.74636302 
C    0.74598969   0.35829304  -3.45604531 
C    2.92286883  -0.54778616  -3.01156008 
C    0.41578353  -0.78434156  -4.16036684 
C    1.29108245  -1.85775633  -4.21306537 
C    2.56145741  -1.71979861  -3.66487790 
H   -0.56810562  -0.85605297  -4.60785125 
H    1.05316222  -2.72177320  -4.82536551 
H    0.71758032   2.98420330  -1.79037452 
H   -0.00052584   1.14572405  -3.35510367 
H    3.97280050  -0.45592243  -2.70449775 
H    3.23895192  -2.57592439  -3.66403648 
*
