! EnGrad PBEh-3c
%output 
xyzfile=True 
end 
%scf 
maxiter 250 
end
%output
Print[P_Hirshfeld] = 1
end
% maxcore
4000
*xyz 0 1
Pd   1.97989660   0.97620856  -0.77531910 
O   -0.32953076   2.51693288  -0.48450243 
O    0.06231451   0.30384600  -0.24091587 
O    3.74167866   1.75377435  -0.83244145 
O    3.33276155   1.19080692   1.22878398 
C   -0.70031183   1.24116794  -0.25111904 
C   -2.20606488   1.03844923  -0.10355076 
H   -2.67925205   1.86500518   0.40586773 
H   -2.45810754   0.09634587   0.41417553 
H   -2.67441352   0.98444558  -1.10608375 
C    4.10981755   1.63786475   0.40369778 
C    5.55003400   1.95281543   0.69320632 
H    5.76502801   1.86241616   1.78012668 
H    5.80478094   2.93258715   0.35502647 
H    6.20392667   1.25221026   0.16083454 
C    1.94906688   0.43221971  -2.75601779 
C    0.74700694   0.35756557  -3.44952295 
C    2.92124220  -0.54263349  -3.01286250 
C    0.41532906  -0.78589296  -4.15675828 
C    1.29417677  -1.85435711  -4.21397370 
C    2.55930584  -1.71863036  -3.65896113 
H   -0.56896624  -0.85756047  -4.60625427 
H    1.05279966  -2.72342515  -4.81833457 
H    0.71858430   2.97756338  -1.78812962 
H   -0.00328704   1.14735205  -3.35708177 
H    3.97163356  -0.45038869  -2.70660391 
H    3.24062837  -2.57099991  -3.66340015 
*
