! EnGrad PBEh-3c
%output 
xyzfile=True 
end 
%scf 
maxiter 250 
end
%output
Print[P_Hirshfeld] = 1
end
% maxcore
4000
*xyz 0 1
Pd   1.97352002   1.00308868  -0.81487944 
O   -0.31943171   2.51884370  -0.51234168 
O    0.07814010   0.28922065  -0.24584890 
O    3.73598382   1.74987714  -0.83631884 
O    3.34011789   1.17139419   1.23844285 
C   -0.70625419   1.26941952  -0.25678922 
C   -2.20247156   1.03210801  -0.10444919 
H   -2.67893586   1.86365935   0.40268437 
H   -2.46059621   0.09653577   0.41213488 
H   -2.66884753   0.98072675  -1.10591859 
C    4.11043014   1.63665788   0.39746966 
C    5.54915883   1.93897399   0.70114499 
H    5.76776138   1.84723660   1.77537190 
H    5.80504585   2.93016334   0.35795199 
H    6.19741804   1.24681801   0.15450935 
C    1.93425920   0.43112761  -2.73619160 
C    0.73740919   0.36766446  -3.45121618 
C    2.92610393  -0.52628433  -3.01165810 
C    0.41339275  -0.78448051  -4.15789446 
C    1.29387996  -1.85413775  -4.20073238 
C    2.56679462  -1.70443187  -3.66384402 
H   -0.57445418  -0.86666273  -4.59380929 
H    1.05111349  -2.73087755  -4.79029333 
H    0.72123993   2.93767942  -1.77040986 
H   -0.00994872   1.15022904  -3.35778677 
H    3.97277650  -0.42120584  -2.71730912 
H    3.24535491  -2.55716934  -3.65129481 
*
