! EnGrad PBEh-3c
%output 
xyzfile=True 
end 
%scf 
maxiter 250 
end
%output
Print[P_Hirshfeld] = 1
end
% maxcore
4000
*xyz 0 1
Pd   1.90430327   1.12663861  -0.89852784 
O   -0.27811209   2.48144878  -0.64446474 
O    0.10013612   0.32495425  -0.28664812 
O    3.75349047   1.79104098  -0.84656791 
O    3.34971935   1.07598685   1.23334714 
C   -0.69490036   1.31748833  -0.32947435 
C   -2.18202055   1.02580042  -0.11005853 
H   -2.68106798   1.85646115   0.38276632 
H   -2.45448077   0.10303154   0.39837984 
H   -2.62537172   0.95929726  -1.10216904 
C    4.11434350   1.54555684   0.37850496 
C    5.54657977   1.88341191   0.69983243 
H    5.77692627   1.75187997   1.74276491 
H    5.81163317   2.90846246   0.37967888 
H    6.16247265   1.21158509   0.11064967 
C    1.88396779   0.45029767  -2.72915152 
C    0.68736303   0.39425307  -3.43177476 
C    2.93129836  -0.42526694  -3.01961188 
C    0.39823732  -0.78101179  -4.13094793 
C    1.31019119  -1.82888392  -4.14316761 
C    2.59019475  -1.62475900  -3.64440647 
H   -0.60315203  -0.92057781  -4.52330251 
H    1.04496448  -2.77399990  -4.60808222 
H    0.75309229   2.69334420  -1.67776315 
H   -0.06060542   1.17266392  -3.37213886 
H    3.96956156  -0.24504557  -2.77061890 
H    3.28199128  -2.45488678  -3.59212795 
*
