! EnGrad PBEh-3c
%output 
xyzfile=True 
end 
%scf 
maxiter 250 
end
%output
Print[P_Hirshfeld] = 1
end
% maxcore
4000
*xyz 0 1
Pd   1.88887308   1.17609858  -0.92973029 
O   -0.27183912   2.47039471  -0.68844379 
O    0.09790871   0.34916000  -0.30437973 
O    3.75466119   1.79987535  -0.84637308 
O    3.35689519   1.04097115   1.22336970 
C   -0.68277556   1.31739615  -0.34668844 
C   -2.17151928   1.03094250  -0.11241898 
H   -2.68122302   1.85258991   0.37497626 
H   -2.45065887   0.10174109   0.39535854 
H   -2.61299951   0.95096770  -1.10493253 
C    4.11222943   1.52123631   0.37614303 
C    5.54367224   1.87005921   0.68916148 
H    5.78192749   1.71748728   1.73671776 
H    5.80957510   2.89214940   0.38904985 
H    6.15461671   1.19785500   0.09389896 
C    1.86528270   0.46412498  -2.72126554 
C    0.67055992   0.39767710  -3.42956034 
C    2.92736672  -0.39051474  -3.02415461 
C    0.39205314  -0.77926745  -4.12038597 
C    1.31483933  -1.81923846  -4.12254596 
C    2.59852824  -1.59402558  -3.63756084 
H   -0.61366011  -0.94038765  -4.49909131 
H    1.04448169  -2.78760618  -4.54251687 
H    0.77593848   2.60040663  -1.64941968 
H   -0.08125819   1.18139170  -3.37598333 
H    3.96861927  -0.18242240  -2.78325294 
H    3.29730077  -2.41856785  -3.57284719 
*
