! EnGrad PBEh-3c
%output 
xyzfile=True 
end 
%scf 
maxiter 250 
end
%output
Print[P_Hirshfeld] = 1
end
% maxcore
4000
*xyz -1 1
C   -2.47290754  -0.18152291   0.78590412 
C   -1.94506780   0.92613637   1.46935378 
C   -3.79566200  -0.53619474   1.07231552 
C   -4.71780272   0.46061034   1.37914921 
C   -4.21986043   1.60397459   1.98962338 
C   -2.84553563   1.73230455   2.16453900 
H   -2.58945860  -1.23671715  -1.23005891 
H   -4.16432218  -1.53828050   0.89531823 
H   -2.52138677   2.67668297   2.59127881 
H   -5.78314505   0.26202141   1.34889634 
H   -4.92141664   2.31605420   2.40696338 
C   -0.57015118   1.47075825   1.20352148 
C    0.56967643   0.55368636   1.62053363 
H   -0.37793733   2.44432675   1.67729356 
H   -0.56750323   1.75483738   0.14489544 
C    1.74923237   0.65067810   0.69463573 
H    0.24125417  -0.48560864   1.68725457 
H    0.88014717   0.80422580   2.64199292 
C    1.78342889  -0.06296470  -0.51182473 
C    2.87529794   0.11514753  -1.35705552 
C    3.84773375   1.07400830  -1.09854548 
C    2.90431643   1.33089502   1.07755746 
C    3.82982588   1.72871590   0.12153288 
H    2.97753823  -0.45868347  -2.26869697 
H    4.60564030   1.30016040  -1.83926835 
H    2.95205859   1.74231711   2.08032470 
H    4.49571585   2.56412842   0.29903099 
Pd   0.39196359  -1.37638991  -0.92463174 
Br  -1.41359160  -3.75847647  -1.07054346 
P    1.33528957  -2.98315851   0.19785561 
H    0.67096792  -3.46980862   1.33655669 
C    0.53844479  -1.17354059  -3.90219572 
O    1.60293657  -1.68125619  -4.18920133 
O   -0.39714673  -1.76374041  -3.26222816 
O    0.02711592  -0.10378935  -4.55252088 
H    2.58515193  -2.76843681   0.81734336 
H    1.69668952  -4.19241530  -0.41780554 
H    0.74246705   0.25931637  -5.07907623 
*
