! EnGrad PBEh-3c
%output 
xyzfile=True 
end 
%scf 
maxiter 250 
end
%output
Print[P_Hirshfeld] = 1
end
% maxcore
4000
*xyz -1 1
C   -2.49009323  -0.19614592   0.77898878 
C   -1.95101314   0.93566624   1.41410613 
C   -3.81272297  -0.52825953   0.98763864 
C   -4.69914685   0.42783737   1.42892257 
C   -4.22718887   1.59552107   1.99343520 
C   -2.88267657   1.77890352   2.12656937 
H   -2.52887362  -1.21686832  -1.14919862 
H   -4.14679497  -1.53749385   0.85267943 
H   -2.51586838   2.68487487   2.57754530 
H   -5.77125490   0.25856826   1.32314237 
H   -4.91944306   2.32378005   2.38519808 
C   -0.56048364   1.48461860   1.22445632 
C    0.60241827   0.53162665   1.64032420 
H   -0.39746070   2.42663771   1.73901695 
H   -0.53465707   1.75386121   0.17267858 
C    1.78066734   0.60168244   0.72842208 
H    0.23499592  -0.48815880   1.69262909 
H    0.89556097   0.79619523   2.65320445 
C    1.78650265  -0.06462843  -0.50981335 
C    2.86158918   0.11471417  -1.37270617 
C    3.82933836   1.08523405  -1.09768706 
C    2.86505537   1.39573072   1.06448464 
C    3.84247594   1.71896068   0.12164866 
H    2.95317468  -0.46293227  -2.27595662 
H    4.59186551   1.30179128  -1.84216828 
H    2.95825852   1.74980913   2.08283822 
H    4.51142436   2.54936679   0.31033645 
Pd   0.30555813  -1.42161267  -0.99520822 
Br  -1.41046405  -3.72029465  -1.03252472 
P    1.35821980  -2.99376575   0.21932251 
H    0.68859520  -3.47904930   1.33012921 
C    0.46135224  -1.30023388  -3.96989994 
O    1.65349495  -1.63167992  -4.18735898 
O   -0.39926979  -1.73969119  -3.15529678 
O    0.03500249  -0.05928167  -4.53776826 
H    2.60190277  -2.76279500   0.79787684 
H    1.68177858  -4.18353605  -0.44337457 
H    0.74709602   0.27241730  -5.07408463 
*
