! EnGrad PBEh-3c
%output 
xyzfile=True 
end 
%scf 
maxiter 250 
end
%output
Print[P_Hirshfeld] = 1
end
% maxcore
4000
*xyz -1 1
C   -2.48587307  -0.19591755   0.76706895 
C   -1.96370467   0.94683103   1.40460921 
C   -3.81687406  -0.52697442   0.96600844 
C   -4.70408973   0.41711865   1.43803109 
C   -4.23585640   1.59532343   1.99425891 
C   -2.87440192   1.78126582   2.10225146 
H   -2.50417800  -1.20717267  -1.11442077 
H   -4.14219450  -1.53966420   0.83096116 
H   -2.51497820   2.69235377   2.57123458 
H   -5.76438516   0.25632348   1.31456465 
H   -4.92166883   2.32644486   2.37641675 
C   -0.55345195   1.47840070   1.23299670 
C    0.60549419   0.52670952   1.64739705 
H   -0.40455493   2.42221927   1.76719360 
H   -0.51855415   1.75782391   0.18347621 
C    1.78725448   0.58957040   0.73388168 
H    0.23253522  -0.49164297   1.69620277 
H    0.90385862   0.79180092   2.66136041 
C    1.77856915  -0.07378643  -0.51216266 
C    2.85511091   0.11910002  -1.37299258 
C    3.82452077   1.08435188  -1.10335067 
C    2.86047495   1.41157894   1.05949575 
C    3.84009862   1.72100107   0.12624746 
H    2.94241834  -0.46413936  -2.28136474 
H    4.58515854   1.30255719  -1.84254793 
H    2.95970128   1.75533663   2.08425537 
H    4.51827461   2.54325871   0.31375069 
Pd   0.28885267  -1.43930392  -1.00556198 
Br  -1.41062644  -3.70629502  -1.01659187 
P    1.35888512  -2.98924867   0.21490144 
H    0.69554953  -3.48506341   1.33157691 
C    0.47700614  -1.30382170  -3.98393515 
O    1.63168408  -1.62033073  -4.18612821 
O   -0.40074921  -1.74083885  -3.13564568 
O    0.02696727  -0.06925513  -4.52493931 
H    2.61271720  -2.76023890   0.79069776 
H    1.67657687  -4.18083801  -0.45384076 
H    0.75289066   0.27623149  -5.07176293 
*
