! EnGrad PBEh-3c
%output 
xyzfile=True 
end 
%scf 
maxiter 250 
end
%output
Print[P_Hirshfeld] = 1
end
% maxcore
4000
*xyz -1 1
C   -2.47442274  -0.19179406   0.64783986 
C   -1.96915009   0.98337284   1.32577299 
C   -3.80284013  -0.52194552   0.87177524 
C   -4.70657784   0.38175724   1.44586014 
C   -4.25602860   1.58121167   1.96359826 
C   -2.87682101   1.82626167   1.98125494 
H   -2.32883138  -1.12796748  -0.86432931 
H   -4.11158445  -1.54301350   0.65369352 
H   -2.52126828   2.72686729   2.49557463 
H   -5.75558636   0.22592546   1.25521780 
H   -4.94802144   2.34349210   2.31213824 
C   -0.52336252   1.46253972   1.31257592 
C    0.61975612   0.48903851   1.70685771 
H   -0.44724248   2.36071110   1.96575060 
H   -0.38901450   1.81223382   0.28583695 
C    1.78865426   0.54817464   0.74107153 
H    0.22125596  -0.52435508   1.73385412 
H    0.96655801   0.74617772   2.72046050 
C    1.72237628  -0.12934937  -0.51114985 
C    2.79230397   0.13135117  -1.38491579 
C    3.78195037   1.08397442  -1.11172595 
C    2.83758886   1.44347575   1.05053395 
C    3.81479259   1.74404233   0.11621049 
H    2.86062436  -0.44906873  -2.30643208 
H    4.53982271   1.30768492  -1.85491826 
H    2.96172853   1.79922595   2.08084355 
H    4.56392872   2.50261669   0.33033431 
Pd   0.23286114  -1.54518599  -1.01049994 
Br  -1.42608047  -3.61759527  -0.90150694 
P    1.36348988  -2.96132063   0.18203524 
H    0.76384546  -3.52555352   1.33189642 
C    0.46971981  -1.23175730  -3.92068200 
O    1.58287183  -1.62862794  -4.22084606 
O   -0.38454640  -1.76331617  -3.10941963 
O   -0.00759078  -0.11913874  -4.49775158 
H    2.67428616  -2.74498986   0.71650552 
H    1.64106001  -4.15299569  -0.52876249 
H    0.72465095   0.27179445  -4.99790076 
*
