! EnGrad PBEh-3c
%output 
xyzfile=True 
end 
%scf 
maxiter 250 
end
%output
Print[P_Hirshfeld] = 1
end
% maxcore
4000
*xyz -1 1
C   -2.46980951  -0.19024818   0.60962502 
C   -1.95583659   0.97975083   1.30602940 
C   -3.79091573  -0.52351258   0.86223675 
C   -4.69811356   0.37929055   1.42389189 
C   -4.25311177   1.58333997   1.94162348 
C   -2.88980298   1.83655041   1.96058883 
H   -2.28351497  -1.10372153  -0.80032108 
H   -4.10123556  -1.53331290   0.60043546 
H   -2.52638650   2.73308730   2.46821655 
H   -5.75853055   0.21383510   1.24003389 
H   -4.95412778   2.34250774   2.28994670 
C   -0.51894510   1.46962360   1.33892543 
C    0.62503499   0.47792723   1.72481420 
H   -0.45549713   2.33409467   2.01979264 
H   -0.34857741   1.83933113   0.32771157 
C    1.77516704   0.55029306   0.74230814 
H    0.22137839  -0.53447872   1.74917353 
H    0.98371903   0.72796810   2.73456644 
C    1.71458640  -0.13362429  -0.50430353 
C    2.77127237   0.12975994  -1.38789332 
C    3.76518717   1.08570793  -1.11059834 
C    2.83287175   1.42982500   1.05270668 
C    3.80479311   1.74784005   0.10621915 
H    2.83617388  -0.43758899  -2.31011501 
H    4.52485110   1.30789046  -1.86003956 
H    2.95817254   1.80950508   2.07392924 
H    4.57147370   2.49185101   0.33049202 
Pd   0.23002985  -1.55757282  -0.99460752 
Br  -1.43766149  -3.59826305  -0.87142546 
P    1.37312123  -2.96489006   0.18087886 
H    0.79049118  -3.53333203   1.32495174 
C    0.45524526  -1.24075478  -3.88130988 
O    1.57858555  -1.63732165  -4.22905856 
O   -0.37319716  -1.76410476  -3.12266014 
O   -0.02392209  -0.10846028  -4.49809170 
H    2.68238896  -2.74182274   0.68531799 
H    1.63215791  -4.14184599  -0.54977721 
H    0.70618970   0.26624085  -4.96919955 
*
