! EnGrad PBEh-3c
%output 
xyzfile=True 
end 
%scf 
maxiter 250 
end
%output
Print[P_Hirshfeld] = 1
end
% maxcore
4000
*xyz -1 1
C   -2.43088956  -0.18899678   0.49885008 
C   -1.94263107   0.98391889   1.25059479 
C   -3.75033568  -0.52584671   0.80183110 
C   -4.68202886   0.37075308   1.34698514 
C   -4.25700025   1.58844749   1.85435225 
C   -2.89368610   1.85031758   1.86683757 
H   -2.12375395  -1.02318899  -0.58134561 
H   -4.06237887  -1.49525155   0.41573320 
H   -2.54328998   2.75672416   2.38261616 
H   -5.74478422   0.17262135   1.18908990 
H   -4.97225728   2.33856940   2.20419586 
C   -0.49539155   1.47312352   1.43052388 
C    0.63642256   0.44452973   1.78321628 
H   -0.48666453   2.24687128   2.21797645 
H   -0.20426753   1.94624291   0.48451232 
C    1.74384727   0.54388186   0.76071549 
H    0.22249480  -0.56623547   1.80494323 
H    1.04259835   0.66367655   2.78375584 
C    1.68081116  -0.14627290  -0.47955326 
C    2.70646587   0.13570479  -1.38916823 
C    3.70386905   1.08910330  -1.12566011 
C    2.81667327   1.40751494   1.05147177 
C    3.76814664   1.74938499   0.09092611 
H    2.74505362  -0.40127421  -2.32943779 
H    4.46194276   1.30649362  -1.87531813 
H    2.94003900   1.84066625   2.04843572 
H    4.58562380   2.44684250   0.32690788 
Pd   0.20755317  -1.58174007  -0.94243001 
Br  -1.48864335  -3.52798930  -0.76917105 
P    1.40751408  -2.97506717   0.16578410 
H    0.88297333  -3.56284784   1.30625774 
C    0.42177194  -1.25581352  -3.85773719 
O    1.55095919  -1.64437472  -4.23047327 
O   -0.37070814  -1.79438556  -3.09788042 
O   -0.08439072  -0.11059925  -4.44876158 
H    2.72089583  -2.72925782   0.57613129 
H    1.60332703  -4.10825599  -0.62769567 
H    0.67072670   0.26674608  -4.88981208 
*
