39
Coordinates from ORCA-job reaction4-IEIP_ts_guess_scan_10-9_orca E -1288.402060234998
  Ir      0.610525     -0.718058      0.434684
  C       0.113906     -2.827210      0.348783
  C      -0.034381     -2.360216      1.701961
  C       2.175552     -2.077912      1.075559
  C       1.459924     -2.651877     -0.035259
  C       1.250334     -1.928235      2.137959
  N      -1.062871      0.128835     -0.516962
  C      -2.338565      0.345817      0.183581
  C      -3.140289      1.523365     -0.352381
  H      -3.970651      1.720351      0.323996
  H      -3.577835      1.327406     -1.332252
  H      -2.542263      2.433128     -0.409289
  C      -3.156039     -0.941011      0.157669
  H      -2.060133      0.564794      1.215484
  H      -4.067162     -0.812844      0.740638
  H      -3.446141     -1.201805     -0.860976
  H      -2.611087     -1.781843      0.583499
  C      -0.906108      0.447645     -1.742985
  C       0.415285      0.273167     -2.257926
  H      -1.713257      0.854651     -2.344222
  C       1.472327      0.150748     -1.359076
  C       2.678573     -0.128147     -2.069063
  S       0.877531      0.078004     -3.880559
  C       2.504354     -0.188519     -3.418419
  H       1.603862      1.147286     -0.565720
  H       3.647590     -0.219091     -1.600164
  H       3.255319     -0.354668     -4.175854
  H      -0.668032     -3.242145     -0.270527
  H      -0.927903     -2.402133      2.306173
  H       1.468469     -1.488239      3.100901
  O       1.702646      2.304523      0.163568
  O       0.541919      1.011653      1.552492
  C       1.104945      2.111131      1.235809
  C       1.050240      3.209982      2.256365
  H       1.017765      4.182993      1.772445
  H       1.959274      3.175725      2.859537
  H       0.201078      3.094542      2.924718
  H       3.230768     -1.855457      1.113696
  H       1.879901     -2.907146     -0.997142
39
Coordinates from ORCA-job reaction4-IEIP_ts_guess_scan_10-9_orca E -1288.401989821014
  Ir      0.609208     -0.710247      0.429669
  C       0.119000     -2.823018      0.346561
  C      -0.030774     -2.357571      1.700054
  C       2.177437     -2.066635      1.074091
  C       1.464541     -2.643671     -0.036788
  C       1.251141     -1.920167      2.135670
  N      -1.069718      0.129055     -0.519003
  C      -2.344622      0.345914      0.183212
  C      -3.149157      1.520002     -0.356134
  H      -3.979270      1.717744      0.320305
  H      -3.587109      1.319754     -1.334963
  H      -2.552997      2.430767     -0.416850
  C      -3.159686     -0.942482      0.162993
  H      -2.065326      0.569149      1.213971
  H      -4.070187     -0.814082      0.746881
  H      -3.450842     -1.207463     -0.854276
  H      -2.612468     -1.780761      0.590932
  C      -0.912660      0.443918     -1.750840
  C       0.411623      0.269908     -2.268805
  H      -1.721164      0.846673     -2.353030
  C       1.468238      0.152090     -1.368537
  C       2.674935     -0.131077     -2.076437
  S       0.875551      0.069913     -3.890369
  C       2.501564     -0.198781     -3.425493
  H       1.606657      1.174368     -0.595455
  H       3.643800     -0.219403     -1.606538
  H       3.252981     -0.369953     -4.181256
  H      -0.661188     -3.241130     -0.272851
  H      -0.924023     -2.403097      2.304307
  H       1.467359     -1.479600      3.098782
  O       1.772907      2.270392      0.211954
  O       0.525896      1.018180      1.553860
  C       1.124303      2.103315      1.258930
  C       1.052865      3.209968      2.269525
  H       1.063295      4.180138      1.778848
  H       1.935058      3.158897      2.910200
  H       0.174160      3.118672      2.902334
  H       3.232083     -1.841675      1.113380
  H       1.885960     -2.898811     -0.998094
39
Coordinates from ORCA-job reaction4-IEIP_ts_guess_scan_10-9_orca E -1288.401051473808
  Ir      0.619775     -0.716996      0.429743
  C       0.121463     -2.831447      0.339657
  C      -0.026004     -2.376316      1.696838
  C       2.181214     -2.085555      1.071299
  C       1.467473     -2.654423     -0.042846
  C       1.254694     -1.943394      2.133133
  N      -1.058610      0.134783     -0.506852
  C      -2.331581      0.354382      0.197731
  C      -3.126893      1.538620     -0.333051
  H      -3.956655      1.736712      0.343679
  H      -3.564398      1.349640     -1.314333
  H      -2.524193      2.445634     -0.385368
  C      -3.155678     -0.927896      0.166214
  H      -2.051390      0.567079      1.230450
  H      -4.065401     -0.798208      0.751027
  H      -3.448499     -1.182250     -0.853292
  H      -2.614391     -1.773577      0.587056
  C      -0.893497      0.462276     -1.744136
  C       0.435124      0.281312     -2.270284
  H      -1.698977      0.875870     -2.342803
  C       1.488646      0.133264     -1.369485
  C       2.690453     -0.170785     -2.078062
  S       0.898909      0.089544     -3.892809
  C       2.518031     -0.222476     -3.427703
  H       1.671901      1.182825     -0.614563
  H       3.656795     -0.282670     -1.607602
  H       3.266989     -0.403820     -4.183358
  H      -0.659787     -3.244318     -0.281991
  H      -0.918750     -2.424055      2.301438
  H       1.472169     -1.509927      3.099167
  O       1.578591      2.325092      0.138654
  O       0.527722      1.008711      1.575020
  C       1.046041      2.122231      1.244214
  C       1.007984      3.221634      2.263241
  H       0.919166      4.191388      1.779544
  H       1.947416      3.219032      2.818912
  H       0.198141      3.080597      2.973725
  H       3.236915     -1.866176      1.113554
  H       1.888460     -2.907149     -1.005017
39
Coordinates from ORCA-job reaction4-IEIP_ts_guess_scan_10-9_orca E -1288.402355476888
  Ir      0.610163     -0.720111      0.433260
  C       0.108580     -2.831485      0.356939
  C      -0.035395     -2.365873      1.710834
  C       2.171909     -2.084024      1.078319
  C       1.454170     -2.658963     -0.030299
  C       1.248217     -1.932594      2.141848
  N      -1.065746      0.126506     -0.513099
  C      -2.341159      0.342413      0.186962
  C      -3.140548      1.522009     -0.347993
  H      -3.972754      1.717875      0.326441
  H      -3.575025      1.328993     -1.329818
  H      -2.541646      2.431457     -0.400801
  C      -3.159276     -0.943799      0.156326
  H      -2.063887      0.558400      1.219715
  H      -4.070851     -0.816929      0.738878
  H      -3.448590     -1.201548     -0.863302
  H      -2.614975     -1.786075      0.580181
  C      -0.905156      0.450247     -1.744481
  C       0.420736      0.279211     -2.265177
  H      -1.712411      0.860055     -2.343382
  C       1.474146      0.139368     -1.363941
  C       2.683172     -0.135800     -2.071850
  S       0.888707      0.099245     -3.887573
  C       2.514453     -0.175848     -3.422639
  H       1.619209      1.161985     -0.580128
  H       3.650226     -0.234090     -1.600112
  H       3.268294     -0.333178     -4.179031
  H      -0.675032     -3.246740     -0.260069
  H      -0.927259     -2.407011      2.317361
  H       1.468647     -1.492162      3.104051
  O       1.684700      2.320828      0.150358
  O       0.544627      1.015565      1.550018
  C       1.100228      2.117724      1.230381
  C       1.051746      3.213778      2.252739
  H       1.004270      4.187303      1.771006
  H       1.969817      3.185959      2.842375
  H       0.213173      3.089686      2.932585
  H       3.227857     -1.865114      1.115935
  H       1.872034     -2.918072     -0.992077
39
Coordinates from ORCA-job reaction4-IEIP_ts_guess_scan_10-9_orca E -1288.402406576626
  Ir      0.610751     -0.718087      0.432765
  C       0.109306     -2.828939      0.357642
  C      -0.036400     -2.363465      1.711177
  C       2.171661     -2.081282      1.081429
  C       1.455558     -2.656775     -0.027744
  C       1.246467     -1.929713      2.143569
  N      -1.064773      0.126656     -0.515011
  C      -2.340259      0.341561      0.185313
  C      -3.142044      1.519601     -0.349568
  H      -3.973963      1.714633      0.325465
  H      -3.577158      1.325289     -1.330831
  H      -2.544554      2.429902     -0.403493
  C      -3.156787     -0.945779      0.156922
  H      -2.062457      0.558820      1.217754
  H      -4.068052     -0.819485      0.740121
  H      -3.446549     -1.205078     -0.862172
  H      -2.610963     -1.786786      0.581315
  C      -0.905910      0.450607     -1.744904
  C       0.417974      0.280082     -2.266925
  H      -1.714107      0.860240     -2.342574
  C       1.472072      0.138575     -1.367057
  C       2.679805     -0.136317     -2.076689
  S       0.885516      0.112909     -3.890723
  C       2.509012     -0.176448     -3.427287
  H       1.618849      1.167727     -0.592786
  H       3.646865     -0.239246     -1.606133
  H       3.261227     -0.336830     -4.184657
  H      -0.673394     -3.244417     -0.260334
  H      -0.929204     -2.404140      2.316372
  H       1.465598     -1.488768      3.105847
  O       1.717300      2.303390      0.169704
  O       0.540766      1.016091      1.549967
  C       1.107002      2.113270      1.237382
  C       1.050534      3.213959      2.254919
  H       1.019976      4.186099      1.768992
  H       1.958079      3.180493      2.860397
  H       0.199323      3.099902      2.920698
  H       3.227590     -1.862561      1.120660
  H       1.874710     -2.916494     -0.988782
39
Coordinates from ORCA-job reaction4-IEIP_ts_guess_scan_10-9_orca E -1288.402443970578
  Ir      0.610692     -0.720753      0.433900
  C       0.106049     -2.830811      0.361902
  C      -0.038738     -2.364734      1.715276
  C       2.169478     -2.085605      1.084584
  C       1.452585     -2.660950     -0.024008
  C       1.244429     -1.932040      2.146763
  N      -1.064289      0.126076     -0.514265
  C      -2.340411      0.339427      0.185630
  C      -3.142289      1.518230     -0.347450
  H      -3.974630      1.711697      0.327477
  H      -3.576826      1.325653     -1.329318
  H      -2.545055      2.428831     -0.399326
  C      -3.156855     -0.947927      0.154539
  H      -2.063388      0.554874      1.218683
  H      -4.068565     -0.822662      0.737252
  H      -3.445806     -1.205607     -0.865202
  H      -2.611304     -1.789541      0.577988
  C      -0.904657      0.453479     -1.743621
  C       0.418894      0.282968     -2.266909
  H      -1.712821      0.864673     -2.340276
  C       1.472152      0.133027     -1.367224
  C       2.680268     -0.137980     -2.077725
  S       0.886790      0.122724     -3.891215
  C       2.511240     -0.163348     -3.428942
  H       1.622558      1.165360     -0.594133
  H       3.646830     -0.245221     -1.607110
  H       3.264410     -0.315606     -4.187042
  H      -0.677256     -3.245774     -0.255653
  H      -0.931554     -2.403532      2.320552
  H       1.464357     -1.490550      3.108615
  O       1.717405      2.303654      0.164883
  O       0.544970      1.016290      1.548811
  C       1.112042      2.112394      1.235521
  C       1.052088      3.216522      2.249127
  H       1.016348      4.186825      1.759848
  H       1.960802      3.189294      2.853104
  H       0.202444      3.100973      2.916637
  H       3.225789     -1.868787      1.123892
  H       1.871196     -2.922353     -0.984823
39
Coordinates from ORCA-job reaction4-IEIP_ts_guess_scan_10-9_orca E -1288.402489114773
  Ir      0.609217     -0.726086      0.436150
  C       0.099574     -2.834491      0.372552
  C      -0.045125     -2.366145      1.725055
  C       2.163906     -2.092121      1.094413
  C       1.447079     -2.668830     -0.013150
  C       1.237807     -1.934083      2.155566
  N      -1.064038      0.123315     -0.513964
  C      -2.341632      0.332509      0.184903
  C      -3.144545      1.512329     -0.344366
  H      -3.977858      1.701852      0.330405
  H      -3.577786      1.323126     -1.327481
  H      -2.548521      2.423984     -0.391924
  C      -3.156933     -0.955432      0.148008
  H      -2.066473      0.544347      1.219260
  H      -4.069867     -0.832822      0.729340
  H      -3.443617     -1.210043     -0.873150
  H      -2.611581     -1.797914      0.569817
  C      -0.902653      0.460172     -1.741234
  C       0.420582      0.292974     -2.266680
  H      -1.710557      0.876356     -2.334789
  C       1.471398      0.121414     -1.367593
  C       2.680478     -0.140020     -2.080144
  S       0.892460      0.165186     -3.892476
  C       2.514541     -0.136968     -3.432094
  H       1.629867      1.159361     -0.595108
  H       3.645276     -0.262027     -1.609500
  H       3.268835     -0.277154     -4.191412
  H      -0.683927     -3.249648     -0.244627
  H      -0.938652     -2.400960      2.329472
  H       1.458029     -1.490198      3.116257
  O       1.714778      2.307202      0.150592
  O       0.551344      1.018537      1.542854
  C       1.114667      2.114411      1.224924
  C       1.061971      3.220178      2.237190
  H       1.016733      4.189332      1.746448
  H       1.977679      3.198077      2.830720
  H       0.220332      3.102389      2.914318
  H       3.220803     -1.878472      1.134946
  H       1.865782     -2.934448     -0.972757
39
Coordinates from ORCA-job reaction4-IEIP_ts_guess_scan_10-9_orca E -1288.402495579723
  Ir      0.608656     -0.730218      0.437092
  C       0.096083     -2.836975      0.378843
  C      -0.050845     -2.366784      1.730396
  C       2.159880     -2.096108      1.103565
  C       1.445004     -2.674258     -0.004223
  C       1.231317     -1.934900      2.162410
  N      -1.062463      0.120964     -0.514570
  C      -2.340052      0.328604      0.184758
  C      -3.143846      1.508905     -0.342062
  H      -3.976831      1.696703      0.333568
  H      -3.577571      1.321216     -1.325258
  H      -2.548363      2.420992     -0.388311
  C      -3.155060     -0.959447      0.146190
  H      -2.064761      0.539044      1.219425
  H      -4.068384     -0.837477      0.727055
  H      -3.440986     -1.213147     -0.875390
  H      -2.609959     -1.802272      0.567591
  C      -0.901344      0.464169     -1.739584
  C       0.420374      0.298729     -2.267041
  H      -1.709351      0.884365     -2.330082
  C       1.469949      0.112091     -1.369504
  C       2.679150     -0.141056     -2.084585
  S       0.894042      0.196883     -3.894029
  C       2.514551     -0.116419     -3.436609
  H       1.633795      1.154767     -0.599840
  H       3.642991     -0.274125     -1.615028
  H       3.269263     -0.246784     -4.197274
  H      -0.686341     -3.252609     -0.239362
  H      -0.945908     -2.398722      2.332682
  H       1.450111     -1.488983      3.122496
  O       1.725412      2.300890      0.147706
  O       0.553279      1.018170      1.537796
  C       1.119954      2.111470      1.220195
  C       1.064559      3.221475      2.227826
  H       1.017388      4.188390      1.732831
  H       1.980279      3.204083      2.821466
  H       0.222921      3.104854      2.905136
  H       3.217051     -1.884335      1.146658
  H       1.865428     -2.942956     -0.962192
39
Coordinates from ORCA-job reaction4-IEIP_ts_guess_scan_10-9_orca E -1288.402496389380
  Ir      0.608523     -0.731334      0.436894
  C       0.096724     -2.837938      0.379568
  C      -0.053026     -2.366702      1.730529
  C       2.158968     -2.095968      1.108002
  C       1.446527     -2.675316     -0.000680
  C       1.228164     -1.934138      2.164848
  N      -1.062328      0.120036     -0.515293
  C      -2.339589      0.327635      0.184732
  C      -3.143567      1.508311     -0.341000
  H      -3.976083      1.695731      0.335326
  H      -3.577916      1.321246     -1.324030
  H      -2.548096      2.420423     -0.387027
  C      -3.154859     -0.960211      0.145772
  H      -2.063856      0.537684      1.219348
  H      -4.068302     -0.838101      0.726437
  H      -3.440600     -1.213611     -0.875926
  H      -2.610171     -1.803339      0.567068
  C      -0.901603      0.464679     -1.739771
  C       0.419581      0.299088     -2.267709
  H      -1.709578      0.886043     -2.329413
  C       1.469047      0.109348     -1.370827
  C       2.678406     -0.140625     -2.086570
  S       0.893697      0.204092     -3.895047
  C       2.513880     -0.111303     -3.438558
  H       1.633456      1.152937     -0.601669
  H       3.642153     -0.275922     -1.617450
  H       3.268760     -0.238906     -4.199524
  H      -0.684154     -3.254581     -0.239902
  H      -0.949291     -2.398330      2.331043
  H       1.444925     -1.487303      3.124966
  O       1.728752      2.297783      0.147372
  O       0.552108      1.018203      1.536202
  C       1.119828      2.110826      1.218378
  C       1.066356      3.221039      2.225892
  H       1.018635      4.187759      1.730552
  H       1.983116      3.203759      2.817945
  H       0.225780      3.104929      2.904591
  H       3.215996     -1.883919      1.153193
  H       1.869007     -2.944812     -0.957519
39
Coordinates from ORCA-job reaction4-IEIP_ts_guess_scan_10-9_orca E -1288.402496061000
  Ir      0.608670     -0.731932      0.436354
  C       0.098520     -2.838648      0.378498
  C      -0.055053     -2.366578      1.728872
  C       2.158495     -2.095028      1.112217
  C       1.449352     -2.675469      0.002049
  C       1.224771     -1.933232      2.166550
  N      -1.062143      0.119581     -0.515560
  C      -2.338893      0.327161      0.185407
  C      -3.142755      1.508616     -0.338807
  H      -3.974782      1.695579      0.338262
  H      -3.577697      1.322689     -1.321782
  H      -2.547087      2.420636     -0.384198
  C      -3.154616     -0.960341      0.145410
  H      -2.062605      0.536362      1.220017
  H      -4.068122     -0.838310      0.726009
  H      -3.440295     -1.212813     -0.876529
  H      -2.610403     -1.804123      0.566021
  C      -0.902010      0.465103     -1.739774
  C       0.418749      0.299055     -2.268261
  H      -1.709946      0.887636     -2.328592
  C       1.468438      0.107758     -1.372188
  C       2.677695     -0.140495     -2.088495
  S       0.893063      0.209382     -3.895974
  C       2.512540     -0.110168     -3.440430
  H       1.633092      1.150885     -0.602272
  H       3.641472     -0.277422     -1.619912
  H       3.267164     -0.237625     -4.201672
  H      -0.680266     -3.256489     -0.242787
  H      -0.952815     -2.398522      2.327140
  H       1.438700     -1.485768      3.127006
  O       1.731399      2.295112      0.147325
  O       0.551162      1.017834      1.535155
  C       1.121126      2.109565      1.217745
  C       1.066658      3.220546      2.224283
  H       1.016359      4.186648      1.727930
  H       1.984362      3.205824      2.814929
  H       0.227226      3.103560      2.904210
  H       3.215248     -1.882218      1.160102
  H       1.874596     -2.945162     -0.953515
39
Coordinates from ORCA-job reaction4-IEIP_ts_guess_scan_10-9_orca E -1288.402499265256
  Ir      0.608752     -0.731811      0.435765
  C       0.101449     -2.839033      0.376525
  C      -0.057700     -2.366030      1.726120
  C       2.157936     -2.092675      1.117907
  C       1.453642     -2.674599      0.005532
  C       1.219988     -1.931424      2.168683
  N      -1.062311      0.119496     -0.515514
  C      -2.338702      0.326470      0.186223
  C      -3.142284      1.509038     -0.335976
  H      -3.974136      1.695011      0.341589
  H      -3.577328      1.324952     -1.319246
  H      -2.546431      2.421013     -0.379790
  C      -3.154723     -0.960755      0.143868
  H      -2.062192      0.534127      1.221049
  H      -4.068435     -0.839514      0.724326
  H      -3.440102     -1.211378     -0.878608
  H      -2.610914     -1.805534      0.563033
  C      -0.902901      0.465400     -1.739731
  C       0.417379      0.298378     -2.269028
  H      -1.710974      0.888539     -2.327906
  C       1.467561      0.106442     -1.373898
  C       2.676482     -0.141027     -2.090810
  S       0.890908      0.209500     -3.897205
  C       2.510641     -0.109395     -3.442683
  H       1.632814      1.148561     -0.602797
  H       3.640493     -0.278434     -1.622867
  H       3.265090     -0.236172     -4.204210
  H      -0.674287     -3.258643     -0.247367
  H      -0.957544     -2.398869      2.321218
  H       1.429691     -1.483275      3.129747
  O       1.733058      2.292575      0.146869
  O       0.549945      1.017915      1.534449
  C       1.121666      2.108904      1.216813
  C       1.069016      3.219783      2.223459
  H       1.014591      4.185646      1.726991
  H       1.989399      3.207407      2.809979
  H       0.232705      3.101298      2.906898
  H       3.214235     -1.878537      1.169621
  H       1.882890     -2.944162     -0.948287
39
Coordinates from ORCA-job reaction4-IEIP_ts_guess_scan_10-9_orca E -1288.402504143079
  Ir      0.609042     -0.731215      0.435293
  C       0.107180     -2.839697      0.372806
  C      -0.061876     -2.365952      1.721278
  C       2.157210     -2.088312      1.127900
  C       1.461648     -2.672516      0.011470
  C       1.211689     -1.928901      2.172506
  N      -1.063030      0.119565     -0.514679
  C      -2.339388      0.324589      0.187696
  C      -3.141925      1.509934     -0.329909
  H      -3.974032      1.693444      0.348008
  H      -3.576372      1.330519     -1.314294
  H      -2.545441      2.421695     -0.369277
  C      -3.156137     -0.961963      0.138972
  H      -2.063248      0.527964      1.223432
  H      -4.070154     -0.843125      0.719464
  H      -3.441069     -1.207504     -0.884868
  H      -2.613002     -1.809209      0.554032
  C      -0.904614      0.466113     -1.739006
  C       0.415014      0.298210     -2.269852
  H      -1.713106      0.889830     -2.326181
  C       1.466064      0.104776     -1.376263
  C       2.674068     -0.142905     -2.094409
  S       0.886754      0.209334     -3.898796
  C       2.506794     -0.109776     -3.446133
  H       1.633533      1.144940     -0.602635
  H       3.638522     -0.281196     -1.627653
  H       3.260638     -0.236477     -4.208273
  H      -0.663109     -3.262303     -0.255771
  H      -0.965343     -2.400947      2.310760
  H       1.413718     -1.479960      3.134840
  O       1.736168      2.289635      0.145667
  O       0.549897      1.018793      1.533957
  C       1.124648      2.108335      1.215739
  C       1.074073      3.219898      2.221609
  H       1.010163      4.184813      1.724274
  H       1.999672      3.213935      2.799948
  H       0.244106      3.097829      2.912004
  H       3.212657     -1.871795      1.186493
  H       1.897954     -2.941209     -0.939409
39
Coordinates from ORCA-job reaction4-IEIP_ts_guess_scan_10-9_orca E -1288.402507847392
  Ir      0.609310     -0.730390      0.435281
  C       0.113141     -2.840186      0.368470
  C      -0.066149     -2.367060      1.716131
  C       2.156249     -2.083797      1.138040
  C       1.469852     -2.669814      0.017208
  C       1.202821     -1.927304      2.176385
  N      -1.063648      0.119604     -0.513321
  C      -2.340212      0.322393      0.189297
  C      -3.141251      1.511060     -0.323067
  H      -3.973800      1.691973      0.354986
  H      -3.574885      1.337129     -1.308789
  H      -2.543718      2.422332     -0.357292
  C      -3.157830     -0.963331      0.133372
  H      -2.064684      0.520587      1.226188
  H      -4.071682     -0.847549      0.714738
  H      -3.443077     -1.202678     -0.891859
  H      -2.614954     -1.813427      0.543004
  C      -0.906279      0.466448     -1.737813
  C       0.412719      0.298627     -2.270292
  H      -1.715485      0.890110     -2.324081
  C       1.464556      0.103482     -1.378090
  C       2.671442     -0.145404     -2.097633
  S       0.882310      0.208842     -3.899904
  C       2.502649     -0.111130     -3.449171
  H       1.635207      1.142266     -0.602552
  H       3.636355     -0.284540     -1.632071
  H       3.255662     -0.238197     -4.212076
  H      -0.651513     -3.265406     -0.265178
  H      -0.973403     -2.404682      2.299617
  H       1.396759     -1.478064      3.140242
  O       1.739834      2.287701      0.144341
  O       0.551173      1.019985      1.533488
  C       1.128295      2.108150      1.214657
  C       1.079081      3.220981      2.219160
  H       1.004045      4.184507      1.720542
  H       2.010188      3.223114      2.788579
  H       0.256136      3.094679      2.917060
  H       3.210781     -1.864987      1.203960
  H       1.913376     -2.936838     -0.930819
39
Coordinates from ORCA-job reaction4-IEIP_ts_guess_scan_10-9_orca E -1288.402511907457
  Ir      0.609742     -0.729696      0.435788
  C       0.120372     -2.840889      0.362704
  C      -0.070634     -2.370173      1.709883
  C       2.155248     -2.079009      1.149328
  C       1.479522     -2.666404      0.023131
  C       1.192743     -1.927120      2.180632
  N      -1.064339      0.119242     -0.511494
  C      -2.341172      0.319986      0.191245
  C      -3.139729      1.512959     -0.314956
  H      -3.972707      1.691451      0.363189
  H      -3.572560      1.345707     -1.302184
  H      -2.540290      2.423166     -0.343291
  C      -3.160438     -0.964326      0.127201
  H      -2.066311      0.511881      1.229497
  H      -4.073461     -0.851928      0.710520
  H      -3.447125     -1.196042     -0.899397
  H      -2.617760     -1.817977      0.529755
  C      -0.908258      0.465748     -1.736273
  C       0.410119      0.298675     -2.270381
  H      -1.718479      0.888596     -2.321792
  C       1.462826      0.102335     -1.379446
  C       2.668512     -0.148078     -2.100549
  S       0.877303      0.207468     -3.900562
  C       2.498005     -0.113618     -3.451871
  H       1.637035      1.140600     -0.603077
  H       3.633974     -0.287555     -1.636200
  H       3.249959     -0.241332     -4.215714
  H      -0.637774     -3.268515     -0.277084
  H      -0.982307     -2.411229      2.286212
  H       1.377268     -1.478220      3.146496
  O       1.744021      2.286532      0.142718
  O       0.553727      1.021488      1.532986
  C       1.132359      2.108421      1.213327
  C       1.084013      3.223153      2.215811
  H       0.994823      4.184617      1.715392
  H       2.021532      3.235987      2.774406
  H       0.269721      3.091514      2.922734
  H       3.208674     -1.857732      1.223937
  H       1.931220     -2.930496     -0.921880
39
Coordinates from ORCA-job reaction4-IEIP_ts_guess_scan_10-9_orca E -1288.402516168925
  Ir      0.610200     -0.729449      0.436593
  C       0.126805     -2.841501      0.356411
  C      -0.074414     -2.374695      1.703656
  C       2.154244     -2.075475      1.158641
  C       1.488003     -2.663154      0.027310
  C       1.183807     -1.928832      2.183889
  N      -1.064740      0.118542     -0.509696
  C      -2.341607      0.318399      0.193275
  C      -3.137439      1.515306     -0.307851
  H      -3.970515      1.692545      0.370496
  H      -3.569981      1.353710     -1.296147
  H      -2.535760      2.424149     -0.331712
  C      -3.162851     -0.964336      0.123216
  H      -2.066993      0.505065      1.232546
  H      -4.074407     -0.854460      0.709292
  H      -3.452049     -1.189555     -0.904132
  H      -2.620114     -1.821088      0.519193
  C      -0.909935      0.463817     -1.734916
  C       0.408048      0.297593     -2.270098
  H      -1.721151      0.885184     -2.320186
  C       1.461525      0.101653     -1.379892
  C       2.666412     -0.149864     -2.102129
  S       0.873423      0.204779     -3.900542
  C       2.494566     -0.116589     -3.453284
  H       1.638058      1.140717     -0.604621
  H       3.632349     -0.288750     -1.638557
  H       3.245593     -0.244962     -4.217928
  H      -0.625627     -3.270433     -0.289200
  H      -0.990115     -2.418949      2.273322
  H       1.360017     -1.481080      3.151837
  O       1.746607      2.286777      0.140752
  O       0.556713      1.022679      1.532307
  C       1.135090      2.109133      1.211755
  C       1.086976      3.225616      2.212394
  H       0.983675      4.184890      1.710357
  H       2.030365      3.249174      2.760588
  H       0.281165      3.088552      2.927901
  H       3.206674     -1.852364      1.241252
  H       1.946751     -2.923556     -0.915348
39
Coordinates from ORCA-job reaction4-IEIP_ts_guess_scan_10-9_orca E -1288.402519913686
  Ir      0.610580     -0.729856      0.437263
  C       0.129964     -2.841928      0.352268
  C      -0.075857     -2.378503      1.700041
  C       2.153862     -2.074675      1.162343
  C       1.492066     -2.661604      0.028185
  C       1.179825     -1.931518      2.184945
  N      -1.064829      0.117770     -0.508702
  C      -2.341425      0.318356      0.194603
  C      -3.135389      1.517193     -0.304794
  H      -3.968215      1.694864      0.373761
  H      -3.568201      1.357814     -1.293333
  H      -2.532129      2.425013     -0.327418
  C      -3.164299     -0.963246      0.123071
  H      -2.066519      0.503159      1.234123
  H      -4.074556     -0.853731      0.711229
  H      -3.455733     -1.185913     -0.904199
  H      -2.621594     -1.821436      0.516017
  C      -0.910699      0.461576     -1.734336
  C       0.407298      0.295550     -2.269623
  H      -1.722360      0.881653     -2.319938
  C       1.461229      0.101531     -1.379409
  C       2.666086     -0.149900     -2.101886
  S       0.872247      0.201734     -3.899982
  C       2.493800     -0.118516     -3.452994
  H       1.637545      1.142205     -0.606562
  H       3.632248     -0.287481     -1.638373
  H       3.244462     -0.247120     -4.217953
  H      -0.619847     -3.270744     -0.296453
  H      -0.993590     -2.424279      2.266304
  H       1.352220     -1.485157      3.154222
  O       1.745986      2.288149      0.139005
  O       0.558644      1.022973      1.531775
  C       1.135235      2.109912      1.210523
  C       1.086871      3.227088      2.210440
  H       0.975060      4.185092      1.707728
  H       2.033499      3.256937      2.752660
  H       0.286079      3.086524      2.930870
  H       3.205853     -1.851050      1.249025
  H       1.953956     -2.919245     -0.913706
39
Coordinates from ORCA-job reaction4-IEIP_ts_guess_scan_10-9_orca E -1288.402522028862
  Ir      0.610764     -0.730463      0.437530
  C       0.130195     -2.842130      0.350835
  C      -0.075922     -2.380176      1.699073
  C       2.153828     -2.075527      1.162186
  C       1.492419     -2.661637      0.027386
  C       1.179505     -1.933403      2.184698
  N      -1.064637      0.117396     -0.508474
  C      -2.340888      0.319070      0.195145
  C      -3.134370      1.517999     -0.304790
  H      -3.966898      1.696543      0.373917
  H      -3.567582      1.358246     -1.293092
  H      -2.530688      2.425520     -0.328169
  C      -3.164411     -0.962173      0.124825
  H      -2.065518      0.504422      1.234435
  H      -4.074104     -0.851896      0.713716
  H      -3.456835     -1.185253     -0.902067
  H      -2.621770     -1.820403      0.517773
  C      -0.910626      0.460416     -1.734293
  C       0.407495      0.293962     -2.269277
  H      -1.722215      0.880086     -2.320277
  C       1.461549      0.101513     -1.378808
  C       2.666725     -0.149183     -2.101061
  S       0.872821      0.200153     -3.899487
  C       2.494598     -0.118793     -3.452191
  H       1.636469      1.143382     -0.607885
  H       3.632890     -0.285897     -1.637298
  H       3.245325     -0.247183     -4.217119
  H      -0.619419     -3.270309     -0.298537
  H      -0.994025     -2.425910      2.264740
  H       1.351655     -1.487947      3.154431
  O       1.743910      2.289345      0.137796
  O       0.559174      1.022673      1.531410
  C       1.134098      2.110338      1.209747
  C       1.085435      3.227356      2.209829
  H       0.970822      4.185087      1.707207
  H       2.033015      3.259045      2.750266
  H       0.286243      3.085370      2.931753
  H       3.205834     -1.852244      1.249571
  H       1.954508     -2.918204     -0.914703
