! Opt PBEh-3c
%geom Constraints
{ B 0 20 2.2142857142857144 C }
{ B 24 30 1.342857142857143 C }
    end
end
%output 
xyzfile=True 
end 
%scf 
maxiter 250 
end
%output
Print[P_Hirshfeld] = 1
end
% maxcore
4000
*xyz 1 1
Ir   0.60508285  -0.72994836   0.46146136 
C    0.09889187  -2.83397420   0.37365126 
C   -0.05050002  -2.36114005   1.72517155 
C    2.16215872  -2.09697373   1.10711926 
C    1.44640979  -2.66642282  -0.00652886 
C    1.23630757  -1.93902035   2.16511920 
N   -1.05487614   0.12083710  -0.50788274 
C   -2.33540248   0.34038511   0.18406273 
C   -3.12942110   1.52162879  -0.35557911 
H   -3.96302558   1.72148070   0.31596374 
H   -3.56182064   1.32863059  -1.33828712 
H   -2.52733614   2.42897483  -0.40823855 
C   -3.15729101  -0.94328702   0.15076896 
H   -2.06428450   0.55762508   1.21827223 
H   -4.07271028  -0.81251542   0.72640107 
H   -3.44003144  -1.20246149  -0.87036709 
H   -2.61889833  -1.78646467   0.58031604 
C   -0.89322219   0.43698923  -1.73941600 
C    0.42807184   0.27585750  -2.27283205 
H   -1.70564193   0.83646600  -2.33885713 
C    1.50527431   0.17523430  -1.39998797 
C    2.70184712  -0.09296023  -2.12474023 
S    0.86493581   0.08145204  -3.90505273 
C    2.50310971  -0.16142406  -3.47140260 
H    1.63109166   1.16906876  -0.57704677 
H    3.67956084  -0.17231815  -1.67223269 
H    3.24233172  -0.32227626  -4.24140477 
H   -0.68377546  -3.24473274  -0.24750526 
H   -0.94546496  -2.39742903   2.32771074 
H    1.45443016  -1.49971941   3.12838895 
O    1.70571741   2.29398630   0.17848499 
O    0.54179118   1.00609504   1.57090591 
C    1.10352699   2.10391649   1.25064527 
C    1.04539868   3.20914011   2.26310137 
H    1.00892093   4.17878200   1.77270239 
H    1.95511019   3.18269013   2.86569301 
H    0.19710385   3.09456864   2.93260864 
H    3.21810150  -1.87824103   1.14686049 
H    1.86789741  -2.92330976  -0.96730749 
*
