! Opt PBEh-3c
%geom Constraints
{ B 0 20 2.085714285714286 C }
{ B 24 30 1.4857142857142858 C }
    end
end
%output 
xyzfile=True 
end 
%scf 
maxiter 250 
end
%output
Print[P_Hirshfeld] = 1
end
% maxcore
4000
*xyz 1 1
Ir   0.63792339  -0.71340253   0.40458402 
C    0.15375194  -2.83379541   0.30447447 
C    0.01949852  -2.38582181   1.66523666 
C    2.21575724  -2.07233366   1.01501048 
C    1.49292244  -2.64477911  -0.09250601 
C    1.30194417  -1.94445712   2.09008172 
N   -1.05088839   0.13588351  -0.51834208 
C   -2.30607174   0.39820787   0.20144308 
C   -3.08213287   1.58996561  -0.33971535 
H   -3.89787607   1.81923409   0.34444951 
H   -3.53743045   1.39364145  -1.31132775 
H   -2.45925028   2.48140523  -0.41628845 
C   -3.15445030  -0.86881722   0.21143117 
H   -2.00044771   0.62314289   1.22397089 
H   -4.04352047  -0.71217169   0.82062614 
H   -3.48166396  -1.13256468  -0.79510200 
H   -2.61498468  -1.71728896   0.62971277 
C   -0.90836317   0.40896353  -1.76168634 
C    0.41575619   0.20001296  -2.27670423 
H   -1.71481685   0.80794922  -2.36865217 
C    1.46939483   0.14826895  -1.35524375 
C    2.69048119  -0.15133725  -2.04217608 
S    0.89239763  -0.10931697  -3.86979215 
C    2.52674572  -0.31424838  -3.38086792 
H    1.53224933   1.15825488  -0.68313033 
H    3.65686186  -0.18616895  -1.56040638 
H    3.28350568  -0.51953285  -4.12266001 
H   -0.63295254  -3.24908594  -0.30858895 
H   -0.86816671  -2.43750561   2.27726731 
H    1.52715696  -1.51252444   3.05495775 
O    1.46803285   2.42279103   0.12112373 
O    0.56793431   0.98155893   1.56097729 
C    0.99750179   2.14385893   1.22772170 
C    0.92857573   3.18839700   2.30644293 
H    0.88181472   4.18551639   1.87696019 
H    1.83505945   3.12997829   2.91180364 
H    0.08180962   3.02573942   2.96918801 
H    3.27055757  -1.84700442   1.04669024 
H    1.90475314  -2.89142322  -1.06022363 
*
