39
Generated by autodE on: 2023-08-15. E = -1288.398494 Ha
Ir    0.59126  -0.74022   0.50199
C     0.08570  -2.83620   0.38225
C    -0.05720  -2.36591   1.73668
C     2.15441  -2.11251   1.11626
C     1.43041  -2.66600  -0.00210
C     1.23838  -1.95927   2.17930
N    -1.04569   0.11403  -0.49829
C    -2.33280   0.34708   0.17966
C    -3.11151   1.53068  -0.37685
H    -3.94884   1.74448   0.28590
H    -3.53773   1.33398  -1.36145
H    -2.50037   2.43173  -0.43241
C    -3.16351  -0.93064   0.14864
H    -2.07132   0.57132   1.21480
H    -4.08281  -0.78951   0.71558
H    -3.43959  -1.19548  -0.87289
H    -2.63474  -1.77457   0.58889
C    -0.87798   0.40169  -1.73579
C     0.44432   0.25217  -2.27485
H    -1.69486   0.77545  -2.34654
C     1.55121   0.26095  -1.43909
C     2.73357  -0.01654  -2.17788
S     0.84129  -0.03783  -3.90841
C     2.49876  -0.18757  -3.51054
H     1.63475   1.22289  -0.55977
H     3.72598  -0.03048  -1.75137
H     3.22127  -0.37491  -4.29044
H    -0.70221  -3.23644  -0.23918
H    -0.95005  -2.40373   2.34270
H     1.46280  -1.53117   3.14613
O     1.67702   2.29221   0.20319
O     0.53708   0.99260   1.60690
C     1.08857   2.09476   1.28192
C     1.03629   3.19654   2.29768
H     0.95383   4.16468   1.80954
H     1.96929   3.19787   2.86427
H     0.21752   3.05841   2.99858
H     3.20977  -1.88897   1.14703
H     1.84711  -2.90637  -0.96931
