39
Coordinates from ORCA-job reaction4-IEIP_ts_guess_scan_6-6_orca E -1288.399465473503
  Ir      0.600796     -0.713068      0.438530
  C       0.053794     -2.802035      0.345963
  C       0.104118     -2.346532      1.711589
  C       2.209003     -2.117838      0.798418
  C       1.330704     -2.640642     -0.223459
  C       1.460403     -1.971072      1.981644
  N      -1.052436      0.158016     -0.524520
  C      -2.322365      0.460714      0.154506
  C      -3.124782      1.562618     -0.519323
  H      -3.950801      1.845294      0.131887
  H      -3.569549      1.248279     -1.464778
  H      -2.526119      2.457548     -0.691257
  C      -3.137964     -0.817982      0.305011
  H      -2.030062      0.805688      1.147521
  H      -4.050120     -0.606522      0.861036
  H      -3.425922     -1.220997     -0.666819
  H      -2.595489     -1.587082      0.852795
  C      -0.867041      0.380029     -1.767909
  C       0.479526      0.170252     -2.239279
  H      -1.655461      0.741385     -2.421633
  C       1.560269      0.392181     -1.390900
  C       2.775920      0.010736     -2.029638
  S       0.936274     -0.453815     -3.755522
  C       2.590191     -0.455899     -3.293828
  H       1.509064      1.310555     -0.615602
  H       3.752781      0.131592     -1.584216
  H       3.340404     -0.780847     -3.998936
  H      -0.822416     -3.173450     -0.165858
  H      -0.700126     -2.378348      2.431569
  H       1.825184     -1.566461      2.914909
  O       1.365885      2.445950      0.215412
  O       0.538760      0.938675      1.634387
  C       0.939839      2.122469      1.325227
  C       0.890590      3.120400      2.447313
  H       0.859274      4.135138      2.060089
  H       1.795379      3.020899      3.050226
  H       0.042495      2.944674      3.105624
  H       3.258594     -1.894049      0.680032
  H       1.610774     -2.877263     -1.239469
39
Coordinates from ORCA-job reaction4-IEIP_ts_guess_scan_6-6_orca E -1288.396958068134
  Ir      0.606005     -0.692352      0.427546
  C       0.084821     -2.787956      0.300413
  C       0.119870     -2.354732      1.673396
  C       2.228010     -2.084517      0.779249
  C       1.363673     -2.602116     -0.256974
  C       1.468794     -1.965329      1.958929
  N      -1.059645      0.170674     -0.528778
  C      -2.324653      0.481162      0.154612
  C      -3.134358      1.569281     -0.532665
  H      -3.957142      1.860786      0.118727
  H      -3.583842      1.237540     -1.469926
  H      -2.539263      2.462745     -0.723604
  C      -3.135062     -0.797280      0.332297
  H      -2.025871      0.843368      1.139540
  H      -4.043543     -0.579533      0.891876
  H      -3.429207     -1.216994     -0.630559
  H      -2.585724     -1.555604      0.888279
  C      -0.884093      0.366965     -1.778648
  C       0.461508      0.145837     -2.246464
  H      -1.677185      0.707579     -2.437787
  C       1.538939      0.423246     -1.409314
  C       2.755295      0.001608     -2.022616
  S       0.920550     -0.566593     -3.722000
  C       2.572275     -0.546484     -3.253859
  H       1.492629      1.422755     -0.726542
  H       3.732017      0.156555     -1.587653
  H       3.324335     -0.913422     -3.935909
  H      -0.782886     -3.162397     -0.223519
  H      -0.688755     -2.408911      2.387013
  H       1.821640     -1.571047      2.901142
  O       1.463248      2.408097      0.287579
  O       0.509149      0.935435      1.651501
  C       0.960373      2.106017      1.371826
  C       0.875360      3.107919      2.488010
  H       0.898644      4.122239      2.098998
  H       1.739119      2.981992      3.143798
  H      -0.015498      2.960024      3.094509
  H       3.275790     -1.847102      0.672518
  H       1.654052     -2.820265     -1.274199
39
Coordinates from ORCA-job reaction4-IEIP_ts_guess_scan_6-6_orca E -1288.399596957438
  Ir      0.603392     -0.711102      0.442587
  C       0.063108     -2.803744      0.342147
  C       0.104379     -2.354962      1.709918
  C       2.213401     -2.113160      0.808519
  C       1.342780     -2.635625     -0.219930
  C       1.456988     -1.973741      1.988141
  N      -1.051141      0.159170     -0.522135
  C      -2.319410      0.464836      0.156816
  C      -3.119764      1.565910     -0.520730
  H      -3.946281      1.851348      0.128615
  H      -3.563417      1.249398     -1.466020
  H      -2.519824      2.459658     -0.694431
  C      -3.135747     -0.812966      0.310106
  H      -2.026073      0.811457      1.148941
  H      -4.047189     -0.600030      0.866695
  H      -3.424876     -1.217303     -0.660821
  H      -2.592900     -1.581459      0.858485
  C      -0.867248      0.383252     -1.767239
  C       0.478824      0.174712     -2.245381
  H      -1.656771      0.749201     -2.417015
  C       1.562910      0.380359     -1.395079
  C       2.773789     -0.004173     -2.043499
  S       0.926475     -0.446635     -3.765068
  C       2.581639     -0.461805     -3.309237
  H       1.530974      1.318571     -0.628914
  H       3.753307      0.110017     -1.602222
  H       3.327689     -0.785731     -4.019109
  H      -0.808810     -3.176851     -0.175726
  H      -0.703240     -2.393843      2.425634
  H       1.814945     -1.571477      2.925032
  O       1.358847      2.434188      0.223127
  O       0.525558      0.937215      1.644514
  C       0.932207      2.117675      1.335599
  C       0.879064      3.121934      2.451519
  H       0.849341      4.134592      2.058650
  H       1.781555      3.025622      3.058306
  H       0.028444      2.949778      3.107355
  H       3.263073     -1.886415      0.697505
  H       1.629372     -2.868679     -1.234915
39
Coordinates from ORCA-job reaction4-IEIP_ts_guess_scan_6-6_orca E -1288.397984718311
  Ir      0.589713     -0.717770      0.444388
  C       0.032433     -2.807744      0.392730
  C       0.079720     -2.328907      1.749711
  C       2.188818     -2.123752      0.839768
  C       1.312181     -2.662867     -0.174738
  C       1.435469     -1.951852      2.016954
  N      -1.065411      0.138718     -0.536734
  C      -2.338222      0.435487      0.138822
  C      -3.147056      1.529552     -0.540161
  H      -3.976752      1.808321      0.108058
  H      -3.587105      1.208950     -1.485716
  H      -2.554469      2.428263     -0.713491
  C      -3.144618     -0.848708      0.291971
  H      -2.049927      0.785166      1.131292
  H      -4.058489     -0.642805      0.847276
  H      -3.429172     -1.255989     -0.679067
  H      -2.596169     -1.612392      0.841454
  C      -0.883740      0.363468     -1.781902
  C       0.464698      0.182359     -2.260996
  H      -1.676297      0.727279     -2.428974
  C       1.540011      0.372980     -1.398484
  C       2.763162      0.055820     -2.059658
  S       0.930598     -0.359621     -3.804930
  C       2.585864     -0.344941     -3.347128
  H       1.471692      1.261314     -0.580682
  H       3.737990      0.172972     -1.608742
  H       3.341767     -0.614078     -4.069399
  H      -0.843354     -3.185414     -0.115236
  H      -0.726911     -2.345348      2.467404
  H       1.798145     -1.531301      2.943963
  O       1.602551      2.381491      0.272714
  O       0.526778      0.959693      1.613769
  C       1.036966      2.107580      1.334234
  C       0.952342      3.123550      2.437222
  H       1.035310      4.131820      2.040764
  H       1.783215      2.967029      3.127990
  H       0.032542      3.020482      3.008815
  H       3.240143     -1.908185      0.722072
  H       1.594956     -2.921430     -1.184593
39
Coordinates from ORCA-job reaction4-IEIP_ts_guess_scan_6-6_orca E -1288.399670053789
  Ir      0.597741     -0.709215      0.444324
  C       0.050761     -2.801270      0.364818
  C       0.091922     -2.340115      1.728079
  C       2.202494     -2.112527      0.826381
  C       1.331466     -2.642468     -0.197652
  C       1.444881     -1.959415      2.003671
  N      -1.054908      0.155508     -0.525975
  C      -2.328531      0.447445      0.149991
  C      -3.135264      1.547841     -0.521215
  H      -3.965946      1.821801      0.127779
  H      -3.573791      1.235525     -1.470256
  H      -2.541727      2.447539     -0.685938
  C      -3.136544     -0.837174      0.290864
  H      -2.041570      0.788464      1.145903
  H      -4.051173     -0.635109      0.846345
  H      -3.419843     -1.235910     -0.684081
  H      -2.589810     -1.606026      0.834754
  C      -0.868908      0.391119     -1.768867
  C       0.476200      0.190442     -2.251449
  H      -1.659713      0.758908     -2.415816
  C       1.560939      0.372291     -1.397299
  C       2.770492     -0.001191     -2.054010
  S       0.922467     -0.386823     -3.788426
  C       2.576994     -0.424942     -3.331341
  H       1.536150      1.298373     -0.614409
  H       3.750157      0.096395     -1.609006
  H       3.321955     -0.734316     -4.048760
  H      -0.821736     -3.176713     -0.150361
  H      -0.716481     -2.369988      2.443306
  H       1.802941     -1.549001      2.936992
  O       1.445333      2.422964      0.238382
  O       0.521767      0.951742      1.632850
  C       0.969379      2.120046      1.335050
  C       0.910868      3.126975      2.447973
  H       0.923269      4.139509      2.053919
  H       1.790529      3.005076      3.083016
  H       0.035186      2.980532      3.076475
  H       3.253114     -1.890536      0.714668
  H       1.618310     -2.886567     -1.209940
39
Coordinates from ORCA-job reaction4-IEIP_ts_guess_scan_6-6_orca E -1288.399701473137
  Ir      0.603770     -0.716236      0.445610
  C       0.048316     -2.806453      0.367879
  C       0.087307     -2.344492      1.730674
  C       2.201413     -2.126021      0.834660
  C       1.331206     -2.653384     -0.191278
  C       1.440740     -1.968327      2.009443
  N      -1.049150      0.154314     -0.526795
  C      -2.321154      0.449751      0.151106
  C      -3.125785      1.553125     -0.517690
  H      -3.954544      1.828822      0.133011
  H      -3.566920      1.242986     -1.466223
  H      -2.530020      2.451305     -0.682523
  C      -3.133684     -0.832061      0.292365
  H      -2.031798      0.789322      1.146895
  H      -4.047028     -0.626914      0.848858
  H      -3.419454     -1.229429     -0.682414
  H      -2.589300     -1.603028      0.835385
  C      -0.866326      0.387206     -1.770828
  C       0.477335      0.187417     -2.254177
  H      -1.658285      0.754502     -2.416682
  C       1.559104      0.369601     -1.397559
  C       2.771215      0.006148     -2.055031
  S       0.925562     -0.392317     -3.789348
  C       2.581119     -0.411022     -3.335310
  H       1.531607      1.306762     -0.624737
  H       3.750190      0.110480     -1.610042
  H       3.328594     -0.709671     -4.054626
  H      -0.824067     -3.179044     -0.149507
  H      -0.723254     -2.370590      2.443601
  H       1.797687     -1.558250      2.943337
  O       1.398205      2.433406      0.219704
  O       0.530694      0.945431      1.633888
  C       0.952995      2.120469      1.326919
  C       0.905967      3.125307      2.442132
  H       0.892076      4.138369      2.049483
  H       1.803067      3.016930      3.054825
  H       0.048694      2.963834      3.091983
  H       3.253393     -1.909032      0.726138
  H       1.619882     -2.900024     -1.202390
39
Coordinates from ORCA-job reaction4-IEIP_ts_guess_scan_6-6_orca E -1288.399727679225
  Ir      0.603870     -0.716627      0.446813
  C       0.049388     -2.806754      0.369232
  C       0.085392     -2.344563      1.731852
  C       2.201262     -2.125320      0.839705
  C       1.333375     -2.653371     -0.187654
  C       1.437890     -1.967429      2.012903
  N      -1.047854      0.152244     -0.526153
  C      -2.319593      0.447203      0.152583
  C      -3.123081      1.553230     -0.513199
  H      -3.951288      1.828245      0.138487
  H      -3.564923      1.246007     -1.462343
  H      -2.526298      2.451107     -0.675961
  C      -3.134100     -0.833747      0.290742
  H      -2.029908      0.784075      1.149205
  H      -4.047329     -0.628458      0.847372
  H      -3.420154     -1.228522     -0.685007
  H      -2.591182     -1.606770      0.832218
  C      -0.865968      0.387408     -1.769909
  C       0.477041      0.190197     -2.256101
  H      -1.658871      0.756262     -2.413731
  C       1.559529      0.364544     -1.398931
  C       2.771077      0.002544     -2.058172
  S       0.925507     -0.367193     -3.799178
  C       2.579650     -0.407067     -3.340810
  H       1.533726      1.300540     -0.622958
  H       3.749986      0.097034     -1.610870
  H       3.326042     -0.706885     -4.060773
  H      -0.821747     -3.179868     -0.149865
  H      -0.726644     -2.370507      2.443083
  H       1.792735     -1.556641      2.947292
  O       1.403559      2.429555      0.218817
  O       0.530476      0.945088      1.633217
  C       0.954798      2.118780      1.325505
  C       0.903228      3.126961      2.437534
  H       0.889819      4.138904      2.042012
  H       1.798459      3.020981      3.053382
  H       0.043965      2.966622      3.085048
  H       3.253456     -1.908245      0.733442
  H       1.624079     -2.900372     -1.198088
39
Coordinates from ORCA-job reaction4-IEIP_ts_guess_scan_6-6_orca E -1288.399751025740
  Ir      0.601752     -0.716047      0.450702
  C       0.050117     -2.806405      0.371892
  C       0.080603     -2.344242      1.734525
  C       2.199583     -2.122339      0.849642
  C       1.336069     -2.651656     -0.180596
  C       1.431400     -1.965130      2.020063
  N      -1.047207      0.149856     -0.524334
  C      -2.319726      0.442445      0.154113
  C      -3.121789      1.551906     -0.507797
  H      -3.950318      1.824810      0.144370
  H      -3.563093      1.248937     -1.458540
  H      -2.524155      2.449970     -0.666382
  C      -3.135586     -0.838351      0.285834
  H      -2.031274      0.775012      1.152497
  H      -4.049563     -0.634449      0.841734
  H      -3.420357     -1.228978     -0.691955
  H      -2.594368     -1.614137      0.825091
  C      -0.865535      0.388188     -1.767666
  C       0.476214      0.191883     -2.258110
  H      -1.659907      0.757198     -2.409586
  C       1.560763      0.352798     -1.400474
  C       2.770950     -0.003372     -2.065167
  S       0.922104     -0.346812     -3.808327
  C       2.577116     -0.392971     -3.353782
  H       1.538156      1.286265     -0.618981
  H       3.750450      0.081525     -1.617342
  H       3.321976     -0.684275     -4.078818
  H      -0.818615     -3.180638     -0.150448
  H      -0.734066     -2.370624      2.442692
  H       1.782320     -1.553466      2.955567
  O       1.424036      2.417534      0.222097
  O       0.527698      0.946793      1.634657
  C       0.961517      2.116053      1.325955
  C       0.905164      3.131140      2.431581
  H       0.900730      4.140832      2.030203
  H       1.794307      3.023987      3.056012
  H       0.039283      2.979047      3.072230
  H       3.252016     -1.904439      0.747499
  H       1.630605     -2.898656     -1.189911
39
Coordinates from ORCA-job reaction4-IEIP_ts_guess_scan_6-6_orca E -1288.399757843752
  Ir      0.602497     -0.718004      0.453550
  C       0.048935     -2.807898      0.376242
  C       0.074654     -2.343990      1.738336
  C       2.197524     -2.125434      0.861182
  C       1.337310     -2.655497     -0.171464
  C       1.424615     -1.965568      2.028280
  N      -1.045624      0.148186     -0.524174
  C      -2.319065      0.436770      0.154754
  C      -3.120386      1.550930     -0.500411
  H      -3.949131      1.819871      0.153136
  H      -3.561380      1.254260     -1.453250
  H      -2.522311      2.449734     -0.652948
  C      -3.135635     -0.844520      0.276981
  H      -2.031980      0.762703      1.155675
  H      -4.050344     -0.643826      0.832856
  H      -3.419141     -1.228675     -0.703731
  H      -2.595589     -1.624168      0.811867
  C      -0.865447      0.390140     -1.767310
  C       0.474701      0.197044     -2.261372
  H      -1.661873      0.758608     -2.406948
  C       1.559188      0.345910     -1.401661
  C       2.769044     -0.005688     -2.068555
  S       0.920683     -0.323902     -3.817460
  C       2.574960     -0.379476     -3.362070
  H       1.538648      1.280526     -0.618940
  H       3.748350      0.070946     -1.618917
  H       3.319670     -0.664033     -4.089913
  H      -0.818016     -3.182131     -0.149091
  H      -0.742849     -2.368211      2.443300
  H       1.772337     -1.552673      2.964460
  O       1.428948      2.415475      0.217756
  O       0.531852      0.949426      1.634967
  C       0.965546      2.117413      1.322499
  C       0.910599      3.136442      2.424522
  H       0.904641      4.144708      2.019655
  H       1.801159      3.032069      3.047393
  H       0.046156      2.985852      3.067450
  H       3.250757     -1.909506      0.763301
  H       1.635365     -2.904624     -1.179207
39
Coordinates from ORCA-job reaction4-IEIP_ts_guess_scan_6-6_orca E -1288.399761383437
  Ir      0.603617     -0.719863      0.455166
  C       0.050455     -2.809798      0.376374
  C       0.070585     -2.345561      1.738512
  C       2.197204     -2.127124      0.870107
  C       1.341128     -2.657515     -0.165847
  C       1.419287     -1.966909      2.033847
  N      -1.043689      0.146715     -0.523588
  C      -2.316719      0.434915      0.156609
  C      -3.116009      1.553609     -0.493481
  H      -3.943748      1.821644      0.161703
  H      -3.558225      1.261775     -1.447217
  H      -2.515956      2.451610     -0.642754
  C      -3.135785     -0.845344      0.273048
  H      -2.029213      0.755935      1.159014
  H      -4.050229     -0.645425      0.829679
  H      -3.419866     -1.224622     -0.709398
  H      -2.597333     -1.628481      0.804373
  C      -0.865329      0.388881     -1.767051
  C       0.473546      0.197097     -2.263183
  H      -1.663245      0.756632     -2.405246
  C       1.558199      0.340964     -1.402897
  C       2.767916     -0.005846     -2.071838
  S       0.919139     -0.316914     -3.821752
  C       2.573267     -0.373231     -3.367335
  H       1.537886      1.277757     -0.621022
  H       3.747468      0.069497     -1.622555
  H       3.317937     -0.652777     -4.097161
  H      -0.814086     -3.184477     -0.152566
  H      -0.749867     -2.369466      2.440062
  H       1.763122     -1.553582      2.971281
  O       1.425560      2.414571      0.212790
  O       0.534022      0.948787      1.634461
  C       0.965569      2.116742      1.319222
  C       0.909686      3.138104      2.418959
  H       0.898257      4.145386      2.011753
  H       1.802694      3.038889      3.039134
  H       0.047927      2.985302      3.064929
  H       3.250956     -1.911745      0.776912
  H       1.643241     -2.906939     -1.172303
39
Coordinates from ORCA-job reaction4-IEIP_ts_guess_scan_6-6_orca E -1288.399762112164
  Ir      0.603948     -0.720227      0.455833
  C       0.053271     -2.810852      0.374730
  C       0.067842     -2.346538      1.737054
  C       2.197622     -2.125935      0.876882
  C       1.345860     -2.657173     -0.162245
  C       1.415032     -1.966687      2.037592
  N      -1.043362      0.145809     -0.522960
  C      -2.316208      0.433276      0.158031
  C      -3.113566      1.555719     -0.488070
  H      -3.940794      1.822928      0.168087
  H      -3.556250      1.267914     -1.442791
  H      -2.511760      2.453020     -0.634321
  C      -3.136918     -0.846445      0.268893
  H      -2.028752      0.749954      1.161811
  H      -4.051224     -0.647932      0.826283
  H      -3.421318     -1.221154     -0.715216
  H      -2.599386     -1.632607      0.796669
  C      -0.866306      0.387523     -1.766758
  C       0.471935      0.196533     -2.263871
  H      -1.665305      0.754283     -2.404193
  C       1.557004      0.339132     -1.403850
  C       2.766408     -0.006602     -2.073411
  S       0.917266     -0.315507     -3.823352
  C       2.571197     -0.372062     -3.369524
  H       1.536857      1.277109     -0.622716
  H       3.746213      0.068385     -1.624630
  H       3.315714     -0.650189     -4.100065
  H      -0.808669     -3.186756     -0.157550
  H      -0.755241     -2.371279      2.435499
  H       1.754871     -1.553007      2.976333
  O       1.422677      2.415108      0.209224
  O       0.534558      0.949482      1.633555
  C       0.963640      2.117843      1.316221
  C       0.911513      3.139171      2.416160
  H       0.897156      4.146374      2.008836
  H       1.807456      3.041144      3.032289
  H       0.052839      2.985383      3.065955
  H       3.251598     -1.909907      0.787972
  H       1.651954     -2.906043     -1.167647
39
Coordinates from ORCA-job reaction4-IEIP_ts_guess_scan_6-6_orca E -1288.399763953759
  Ir      0.604676     -0.720333      0.456362
  C       0.059091     -2.812439      0.370278
  C       0.063847     -2.348370      1.733053
  C       2.198967     -2.122960      0.887392
  C       1.354934     -2.655660     -0.157362
  C       1.408206     -1.966267      2.042882
  N      -1.043397      0.144950     -0.521156
  C      -2.315974      0.430599      0.161198
  C      -3.109618      1.559990     -0.477486
  H      -3.936228      1.825422      0.180154
  H      -3.552649      1.279838     -1.434283
  H      -2.504573      2.456055     -0.617662
  C      -3.139346     -0.848344      0.261103
  H      -2.028826      0.738892      1.167596
  H      -4.053266     -0.653181      0.820337
  H      -3.424524     -1.213912     -0.726221
  H      -2.602980     -1.640279      0.781452
  C      -0.868482      0.385901     -1.765506
  C       0.468902      0.195380     -2.264175
  H      -1.669146      0.751191     -2.401745
  C       1.555284      0.337356     -1.405524
  C       2.763623     -0.009028     -2.076083
  S       0.912819     -0.316840     -3.824380
  C       2.566698     -0.373624     -3.372365
  H       1.536149      1.276141     -0.625059
  H       3.744113      0.065485     -1.628743
  H       3.310429     -0.651683     -4.103761
  H      -0.798174     -3.190699     -0.167832
  H      -0.763730     -2.375234      2.426110
  H       1.740873     -1.552255      2.984057
  O       1.423339      2.415491      0.205217
  O       0.536318      0.951323      1.631915
  C       0.965568      2.119322      1.312919
  C       0.913015      3.142064      2.411534
  H       0.893561      4.148546      2.002579
  H       1.811498      3.048588      3.024657
  H       0.057117      2.985999      3.064392
  H       3.253206     -1.905372      0.805942
  H       1.668048     -2.902862     -1.161046
39
Coordinates from ORCA-job reaction4-IEIP_ts_guess_scan_6-6_orca E -1288.399766325248
  Ir      0.605776     -0.719686      0.456654
  C       0.068204     -2.813990      0.362557
  C       0.058382     -2.351009      1.725992
  C       2.201019     -2.117266      0.901642
  C       1.368714     -2.652078     -0.151380
  C       1.398131     -1.965148      2.049530
  N      -1.043682      0.144217     -0.518241
  C      -2.315827      0.427629      0.165826
  C      -3.104515      1.565979     -0.463213
  H      -3.930513      1.829129      0.196100
  H      -3.547730      1.295830     -1.422747
  H      -2.495230      2.460365     -0.595317
  C      -3.142693     -0.850113      0.251722
  H      -2.028909      0.724998      1.175471
  H      -4.055432     -0.659719      0.814524
  H      -3.430008     -1.203082     -0.739568
  H      -2.607119     -1.649760      0.761130
  C      -0.871401      0.383675     -1.763306
  C       0.465189      0.192637     -2.264065
  H      -1.673746      0.747735     -2.398157
  C       1.553717      0.335399     -1.408066
  C       2.760405     -0.011824     -2.081132
  S       0.905836     -0.321882     -3.824755
  C       2.560267     -0.379002     -3.376245
  H       1.536161      1.274058     -0.627844
  H       3.742117      0.063192     -1.636602
  H       3.302363     -0.658812     -4.108648
  H      -0.782135     -3.195683     -0.184037
  H      -0.775655     -2.381724      2.411120
  H       1.719914     -1.550831      2.994375
  O       1.425268      2.414651      0.200982
  O       0.537631      0.953337      1.629704
  C       0.967338      2.120766      1.309065
  C       0.914134      3.145290      2.406044
  H       0.888599      4.150872      1.995118
  H       1.815625      3.057436      3.015576
  H       0.061522      2.986610      3.062491
  H       3.255440     -1.896931      0.831046
  H       1.692208     -2.896076     -1.152606
39
Coordinates from ORCA-job reaction4-IEIP_ts_guess_scan_6-6_orca E -1288.399766917636
  Ir      0.607125     -0.719472      0.456592
  C       0.074708     -2.815075      0.357143
  C       0.054208     -2.352945      1.720855
  C       2.202291     -2.113543      0.912092
  C       1.378694     -2.650014     -0.146778
  C       1.390344     -1.964305      2.054292
  N      -1.043713      0.143520     -0.516241
  C      -2.315493      0.425399      0.169098
  C      -3.100969      1.569701     -0.453209
  H      -3.926784      1.830937      0.207091
  H      -3.544066      1.306525     -1.414705
  H      -2.489107      2.463155     -0.579446
  C      -3.144973     -0.851249      0.245861
  H      -2.028546      0.715481      1.180815
  H      -4.056248     -0.664109      0.812100
  H      -3.434836     -1.195120     -0.747887
  H      -2.609624     -1.656355      0.746902
  C      -0.873213      0.382655     -1.761564
  C       0.462860      0.191145     -2.264248
  H      -1.676385      0.746859     -2.395309
  C       1.552775      0.334090     -1.410152
  C       2.758213     -0.014561     -2.085097
  S       0.900545     -0.323690     -3.825552
  C       2.555849     -0.381867     -3.379736
  H       1.537083      1.272234     -0.629683
  H       3.740671      0.059658     -1.642089
  H       3.296650     -0.662696     -4.113041
  H      -0.770686     -3.198981     -0.195520
  H      -0.784546     -2.386205      2.400092
  H       1.704019     -1.549505      3.001679
  O       1.427907      2.413635      0.198259
  O       0.539250      0.954377      1.628095
  C       0.969105      2.121410      1.306420
  C       0.914262      3.147634      2.401728
  H       0.884196      4.152403      1.989071
  H       1.817546      3.064422      3.009249
  H       0.063643      2.987032      3.060248
  H       3.256845     -1.891569      0.849405
  H       1.709769     -2.891821     -1.146091
39
Coordinates from ORCA-job reaction4-IEIP_ts_guess_scan_6-6_orca E -1288.399766623967
  Ir      0.608445     -0.719826      0.456568
  C       0.079288     -2.816154      0.353243
  C       0.050075     -2.354720      1.717062
  C       2.202697     -2.111504      0.921129
  C       1.386249     -2.649354     -0.142421
  C       1.383176     -1.963932      2.058499
  N      -1.043504      0.142689     -0.514842
  C      -2.314977      0.423462      0.171496
  C      -3.098401      1.571931     -0.445764
  H      -3.924343      1.831255      0.215135
  H      -3.541157      1.313996     -1.408818
  H      -2.485098      2.465038     -0.567319
  C      -3.146449     -0.852254      0.241916
  H      -2.027913      0.708443      1.184614
  H      -4.056129     -0.667472      0.811460
  H      -3.439024     -1.189112     -0.753437
  H      -2.611062     -1.661542      0.736181
  C      -0.874221      0.382244     -1.760152
  C       0.461384      0.190204     -2.264652
  H      -1.677752      0.747175     -2.393058
  C       1.552236      0.332534     -1.411794
  C       2.756806     -0.015722     -2.088983
  S       0.896324     -0.323733     -3.826691
  C       2.552677     -0.382617     -3.383315
  H       1.538131      1.270621     -0.631233
  H       3.739810      0.058105     -1.647116
  H       3.292400     -0.663244     -4.117762
  H      -0.762210     -3.201467     -0.204360
  H      -0.792602     -2.389539      2.391353
  H       1.690199     -1.548509      3.007815
  O       1.430271      2.412659      0.196003
  O       0.541358      0.954964      1.627099
  C       0.970709      2.121759      1.304279
  C       0.914720      3.149647      2.397944
  H       0.880654      4.153631      1.983665
  H       1.819674      3.070508      3.003516
  H       0.065980      2.987552      3.058499
  H       3.257444     -1.888791      0.865010
  H       1.723504     -2.889736     -1.140031
39
Coordinates from ORCA-job reaction4-IEIP_ts_guess_scan_6-6_orca E -1288.399766556461
  Ir      0.609101     -0.720240      0.456552
  C       0.080821     -2.816630      0.351830
  C       0.048218     -2.355597      1.715703
  C       2.202650     -2.111186      0.924788
  C       1.389004     -2.649529     -0.140599
  C       1.380122     -1.963971      2.060190
  N      -1.043344      0.142276     -0.514668
  C      -2.314576      0.422948      0.172156
  C      -3.097797      1.572247     -0.443825
  H      -3.923890      1.830740      0.217217
  H      -3.540390      1.315626     -1.407301
  H      -2.484509      2.465541     -0.564073
  C      -3.146632     -0.852431      0.241566
  H      -2.027231      0.707033      1.185456
  H      -4.055413     -0.668064      0.812672
  H      -3.440714     -1.187411     -0.753972
  H      -2.611077     -1.662910      0.733690
  C      -0.874462      0.382382     -1.759861
  C       0.460911      0.190316     -2.265176
  H      -1.677944      0.747971     -2.392467
  C       1.551925      0.331773     -1.412493
  C       2.756255     -0.016308     -2.090360
  S       0.894953     -0.322258     -3.827676
  C       2.551772     -0.381717     -3.384988
  H       1.538624      1.270017     -0.631857
  H       3.739284      0.056781     -1.648415
  H       3.291134     -0.661745     -4.120012
  H      -0.759241     -3.202232     -0.207736
  H      -0.796042     -2.390733      2.387994
  H       1.684587     -1.548224      3.010200
  O       1.431081      2.412283      0.195105
  O       0.542635      0.954778      1.626823
  C       0.971383      2.121574      1.303456
  C       0.914993      3.150149      2.396443
  H       0.879065      4.153789      1.981488
  H       1.820754      3.072797      3.001039
  H       0.067191      2.987358      3.058026
  H       3.257532     -1.888502      0.871330
  H       1.728636     -2.889503     -1.137504
39
Coordinates from ORCA-job reaction4-IEIP_ts_guess_scan_6-6_orca E -1288.399766816933
  Ir      0.609062     -0.720458      0.456484
  C       0.080786     -2.816759      0.351438
  C       0.047491     -2.355917      1.715373
  C       2.202325     -2.111359      0.925506
  C       1.389253     -2.649774     -0.140292
  C       1.379160     -1.964134      2.060469
  N      -1.043346      0.142178     -0.514822
  C      -2.314491      0.422992      0.172094
  C      -3.098179      1.571776     -0.444236
  H      -3.924426      1.829994      0.216726
  H      -3.540644      1.314792     -1.407675
  H      -2.485374      2.465386     -0.564621
  C      -3.146352     -0.852457      0.242356
  H      -2.026984      0.707755      1.185166
  H      -4.054838     -0.667909      0.813877
  H      -3.440917     -1.187782     -0.752918
  H      -2.610576     -1.662769      0.734500
  C      -0.874373      0.382602     -1.759920
  C       0.460952      0.190492     -2.265319
  H      -1.677687      0.748458     -2.392588
  C       1.551921      0.331593     -1.412522
  C       2.756291     -0.016023     -2.090542
  S       0.894972     -0.321592     -3.827927
  C       2.551877     -0.381043     -3.385282
  H       1.538719      1.270060     -0.631990
  H       3.739252      0.057106     -1.648448
  H       3.291178     -0.660647     -4.120526
  H      -0.759021     -3.202276     -0.208573
  H      -0.797134     -2.390937      2.387208
  H       1.683146     -1.548326      3.010608
  O       1.431208      2.412352      0.194942
  O       0.543130      0.954694      1.626843
  C       0.971681      2.121516      1.303347
  C       0.915590      3.150152      2.396304
  H       0.879157      4.153737      1.981264
  H       1.821720      3.073118      3.000390
  H       0.068218      2.987205      3.058399
  H       3.257280     -1.888875      0.872689
  H       1.729345     -2.889729     -1.137043
