39
Generated by autodE on: 2023-08-14. E = -1288.398280 Ha
Ir    0.59348  -0.72130   0.46363
C     0.04169  -2.80621   0.36115
C     0.09306  -2.35247   1.72801
C     2.19872  -2.13055   0.81730
C     1.31898  -2.64664  -0.20702
C     1.45187  -1.98498   2.00091
N    -1.04472   0.15590  -0.51883
C    -2.31834   0.46493   0.15072
C    -3.11950   1.55703  -0.54023
H    -3.94870   1.84634   0.10398
H    -3.55981   1.23060  -1.48370
H    -2.52178   2.45095  -0.72060
C    -3.13307  -0.81260   0.31419
H    -2.03096   0.82325   1.14052
H    -4.04871  -0.59454   0.86184
H    -3.41497  -1.22935  -0.65362
H    -2.59338  -1.57341   0.87617
C    -0.85453   0.37426  -1.76362
C     0.49082   0.17100  -2.24624
H    -1.64543   0.73098  -2.41707
C     1.58654   0.43044  -1.42985
C     2.79310   0.04940  -2.08425
S     0.92552  -0.48008  -3.75991
C     2.58794  -0.44924  -3.33304
H     1.53123   1.33745  -0.63860
H     3.77716   0.19297  -1.66220
H     3.32801  -0.78071  -4.04571
H    -0.83590  -3.17276  -0.15178
H    -0.71155  -2.38363   2.44769
H     1.81808  -1.58519   2.93565
O     1.36501   2.43531   0.23734
O     0.53387   0.93017   1.65671
C     0.93641   2.11357   1.34662
C     0.88463   3.11294   2.46711
H     0.85208   4.12697   2.07814
H     1.78922   3.01606   3.07075
H     0.03643   2.93704   3.12519
H     3.24814  -1.90635   0.69770
H     1.59873  -2.87836  -1.22429
