39
Generated by autodE on: 2023-08-14. E = -1288.400385 Ha
Ir    0.61010  -0.72269   0.45507
C     0.07500  -2.81951   0.36837
C     0.03298  -2.35381   1.72928
C     2.19439  -2.11581   0.95123
C     1.38809  -2.65971  -0.11607
C     1.36104  -1.95855   2.07874
N    -1.04480   0.13555  -0.51789
C    -2.31729   0.40446   0.17142
C    -3.10583   1.55774  -0.43083
H    -3.93301   1.80395   0.23352
H    -3.54752   1.31095  -1.39726
H    -2.49727   2.45567  -0.54023
C    -3.14660  -0.87350   0.22647
H    -2.03167   0.67872   1.18796
H    -4.05699  -0.69686   0.79754
H    -3.43797  -1.19884  -0.77304
H    -2.61066  -1.68795   0.71127
C    -0.87793   0.39376  -1.76069
C     0.45452   0.21036  -2.27096
H    -1.68327   0.76804  -2.38555
C     1.53578   0.27891  -1.39694
C     2.74384  -0.03967  -2.08308
S     0.89968  -0.20544  -3.85772
C     2.54985  -0.31506  -3.40185
H     1.54709   1.24095  -0.61498
H     3.72266  -0.00950  -1.62701
H     3.29435  -0.55527  -4.14567
H    -0.76121  -3.20674  -0.19584
H    -0.81632  -2.38313   2.39526
H     1.65914  -1.53641   3.02797
O     1.48531   2.38895   0.18394
O     0.54284   0.96599   1.61472
C     0.99794   2.11863   1.28878
C     0.94172   3.16502   2.36402
H     0.92622   4.16277   1.93390
H     1.83770   3.08337   2.98239
H     0.08222   3.02372   3.01523
H     3.25101  -1.89977   0.90731
H     1.73424  -2.91008  -1.10806
