39
Generated by autodE on: 2023-08-16. E = -1288.406026 Ha
Ir    0.60800  -0.74572   0.42946
C     0.14499  -2.85532   0.35506
C    -0.12116  -2.40456   1.69755
C     2.12402  -2.06669   1.25041
C     1.52322  -2.66871   0.09543
C     1.09874  -1.93747   2.23231
N    -1.07432   0.09923  -0.50606
C    -2.35182   0.27621   0.20156
C    -3.14060   1.49697  -0.25090
H    -3.97559   1.64888   0.43120
H    -3.56935   1.38133  -1.24723
H    -2.53406   2.40275  -0.23318
C    -3.17837  -0.99890   0.07877
H    -2.07980   0.42056   1.24833
H    -4.08696  -0.91313   0.67351
H    -3.47245  -1.17753  -0.95629
H    -2.63569  -1.87429   0.43202
C    -0.92389   0.47424  -1.72397
C     0.39039   0.31688  -2.26610
H    -1.73720   0.91094  -2.29467
C     1.42358   0.02418  -1.37966
C     2.63712  -0.17968  -2.10160
S     0.88460   0.37401  -3.89152
C     2.48972  -0.01468  -3.44745
H     1.65614   1.18518  -0.64107
H     3.59198  -0.38557  -1.63979
H     3.25324  -0.08582  -4.20725
H    -0.56775  -3.30127  -0.32311
H    -1.06426  -2.45469   2.21976
H     1.22204  -1.48727   3.20720
O     1.77718   2.28601   0.06664
O     0.59326   1.04576   1.48580
C     1.17398   2.11675   1.15505
C     1.16485   3.24991   2.13531
H     1.03746   4.20074   1.62255
H     2.13014   3.28544   2.64334
H     0.38878   3.12128   2.88409
H     3.16980  -1.84013   1.38866
H     2.02941  -2.92661  -0.82341
