! Opt PBEh-3c
%geom Constraints
{ B 0 20 2.0 C }
{ B 24 30 1.457142857142857 C }
    end
end
%output 
xyzfile=True 
end 
%scf 
maxiter 250 
end
%output
Print[P_Hirshfeld] = 1
end
% maxcore
4000
*xyz 1 1
Ir   0.62762667  -0.72159996   0.38870299 
C    0.16557218  -2.84674939   0.31330882 
C   -0.04627401  -2.40430472   1.66727194 
C    2.17617689  -2.05474163   1.13007652 
C    1.52788595  -2.65218270  -0.00433245 
C    1.19474640  -1.93704618   2.15447404 
N   -1.06994746   0.12919070  -0.51680309 
C   -2.33061231   0.34068036   0.20828102 
C   -3.12904554   1.53864214  -0.28509379 
H   -3.95168328   1.72088604   0.40457255 
H   -3.57635608   1.37466776  -1.26644757 
H   -2.52477587   2.44541112  -0.32050479 
C   -3.15778127  -0.93976448   0.15950247 
H   -2.03366611   0.52920111   1.24103068 
H   -4.05326776  -0.82532612   0.76889928 
H   -3.47412948  -1.16457566  -0.85984357 
H   -2.60726924  -1.79754067   0.54212552 
C   -0.92600581   0.47734536  -1.74255648 
C    0.39148975   0.28120113  -2.26724958 
H   -1.73054078   0.91695718  -2.32256770 
C    1.41338464   0.04348998  -1.33480711 
C    2.63714461  -0.21709687  -2.04064402 
S    0.89908208   0.20532897  -3.87768336 
C    2.50434523  -0.15916623  -3.39169666 
H    1.59737467   1.11434469  -0.69889748 
H    3.58815168  -0.37589761  -1.55280577 
H    3.27272362  -0.28675107  -4.13897318 
H   -0.57566731  -3.28769991  -0.33705977 
H   -0.96658517  -2.46058798   2.22810403 
H    1.35811201  -1.49219189   3.12591171 
O    1.68028692   2.35453951   0.08859500 
O    0.58153266   1.02120763   1.49385185 
C    1.11083206   2.13655629   1.16850108 
C    1.04580843   3.22721507   2.19989812 
H    0.97636407   4.20209036   1.72364461 
H    1.96762828   3.21458883   2.78405818 
H    0.21380650   3.08418645   2.88426801 
H    3.22636885  -1.82691978   1.22701260 
H    1.99653338  -2.90839786  -0.94338453 
*
