39
Coordinates from ORCA-job reaction4-IEIP_ts_guess_scan_14-11_orca E -1288.400966280844
  Ir      0.618321     -0.735574      0.387553
  C       0.178246     -2.853226      0.310523
  C      -0.105059     -2.426037      1.658479
  C       2.136889     -2.042542      1.230012
  C       1.559102     -2.650123      0.068846
  C       1.097452     -1.942947      2.207934
  N      -1.084808      0.107722     -0.511016
  C      -2.352385      0.279895      0.213418
  C      -3.143518      1.506843     -0.216899
  H      -3.972773      1.650873      0.473841
  H      -3.580429      1.404260     -1.211150
  H      -2.535727      2.411629     -0.192535
  C      -3.181371     -0.993426      0.085870
  H      -2.066696      0.411501      1.258233
  H      -4.079667     -0.916060      0.697141
  H      -3.493019     -1.156670     -0.946580
  H      -2.632446     -1.873733      0.416552
  C      -0.943111      0.491396     -1.721715
  C       0.370811      0.312642     -2.243002
  H      -1.749686      0.942079     -2.290475
  C       1.370838     -0.020698     -1.322029
  C       2.601680     -0.232425     -2.024399
  S       0.909825      0.389786     -3.849085
  C       2.494959     -0.040288     -3.368615
  H       1.616039      1.170688     -0.691670
  H       3.540921     -0.460844     -1.541313
  H       3.277888     -0.110211     -4.108549
  H      -0.519771     -3.309860     -0.375736
  H      -1.054313     -2.490367      2.167713
  H       1.204284     -1.499075      3.187551
  O       1.743445      2.307233      0.012104
  O       0.616316      1.051093      1.449937
  C       1.171215      2.131692      1.109727
  C       1.165735      3.260230      2.097116
  H       1.050156      4.215478      1.590270
  H       2.127525      3.282241      2.612587
  H       0.384346      3.133431      2.840882
  H       3.178722     -1.807819      1.383738
  H       2.079436     -2.899598     -0.844519
39
Coordinates from ORCA-job reaction4-IEIP_ts_guess_scan_14-11_orca E -1288.401195289834
  Ir      0.617919     -0.736399      0.385173
  C       0.177345     -2.856407      0.312096
  C      -0.103461     -2.430886      1.661088
  C       2.136598     -2.045618      1.229102
  C       1.557697     -2.654000      0.068969
  C       1.098337     -1.947117      2.208044
  N      -1.087250      0.105978     -0.509239
  C      -2.354120      0.279502      0.216214
  C      -3.143418      1.507590     -0.214140
  H      -3.972721      1.652717      0.476296
  H      -3.580022      1.405721     -1.208619
  H      -2.534423      2.411580     -0.189502
  C      -3.185120     -0.992491      0.088852
  H      -2.068030      0.410671      1.261018
  H      -4.083185     -0.913830      0.700301
  H      -3.497315     -1.155221     -0.943528
  H      -2.637516     -1.873669      0.419355
  C      -0.942560      0.490706     -1.724651
  C       0.374519      0.314131     -2.248207
  H      -1.748613      0.942560     -2.293137
  C       1.371177     -0.024517     -1.325332
  C       2.603858     -0.235013     -2.026276
  S       0.917829      0.398084     -3.852842
  C       2.500925     -0.037112     -3.369976
  H       1.621713      1.177404     -0.695123
  H       3.541927     -0.465572     -1.541759
  H       3.285785     -0.105465     -4.107922
  H      -0.521391     -3.313769     -0.372971
  H      -1.051611     -2.496326      2.172131
  H       1.206342     -1.503860      3.187804
  O       1.746209      2.314144      0.008856
  O       0.615031      1.052876      1.449180
  C       1.171022      2.135043      1.108256
  C       1.162039      3.263559      2.095289
  H       1.046096      4.218623      1.588112
  H       2.122718      3.286923      2.612748
  H       0.379227      3.135557      2.837264
  H       3.178727     -1.811764      1.382295
  H       2.077089     -2.905141     -0.844482
39
Coordinates from ORCA-job reaction4-IEIP_ts_guess_scan_14-11_orca E -1288.401294214863
  Ir      0.617265     -0.736842      0.384138
  C       0.173507     -2.857705      0.317346
  C      -0.104189     -2.433538      1.667216
  C       2.134377     -2.048891      1.230826
  C       1.553705     -2.657713      0.072251
  C       1.097554     -1.950373      2.211141
  N      -1.087475      0.105276     -0.507406
  C      -2.354086      0.278112      0.217106
  C      -3.142909      1.506181     -0.214127
  H      -3.973693      1.651028      0.474629
  H      -3.577237      1.404413     -1.209603
  H      -2.534136      2.410263     -0.188108
  C      -3.184625     -0.994086      0.089257
  H      -2.068421      0.409120      1.262041
  H      -4.083122     -0.915835      0.700160
  H      -3.496076     -1.156907     -0.943305
  H      -2.636760     -1.875038      0.420130
  C      -0.941418      0.492840     -1.724056
  C       0.375920      0.318114     -2.251186
  H      -1.748109      0.945889     -2.290522
  C       1.369654     -0.030650     -1.329106
  C       2.603702     -0.237235     -2.029469
  S       0.921491      0.411712     -3.854727
  C       2.503747     -0.026570     -3.371498
  H       1.628895      1.182579     -0.700578
  H       3.540691     -0.472511     -1.545069
  H       3.290318     -0.089405     -4.108085
  H      -0.526597     -3.315122     -0.366260
  H      -1.051439     -2.498420      2.179976
  H       1.207481     -1.507300      3.190771
  O       1.749807      2.318604      0.005178
  O       0.615788      1.053726      1.446227
  C       1.171713      2.136145      1.105128
  C       1.161237      3.264415      2.091565
  H       1.045617      4.219454      1.584239
  H       2.121198      3.288093      2.610383
  H       0.377338      3.135779      2.832201
  H       3.177034     -1.817019      1.383275
  H       2.071624     -2.911395     -0.841339
39
Coordinates from ORCA-job reaction4-IEIP_ts_guess_scan_14-11_orca E -1288.401363960978
  Ir      0.616741     -0.737839      0.383872
  C       0.169004     -2.858383      0.324107
  C      -0.106173     -2.435326      1.674710
  C       2.131519     -2.052203      1.234635
  C       1.549396     -2.661243      0.077383
  C       1.095768     -1.953158      2.216216
  N      -1.087142      0.104942     -0.506907
  C      -2.354622      0.275046      0.216258
  C      -3.145234      1.502488     -0.213707
  H      -3.977362      1.644718      0.473961
  H      -3.577797      1.401561     -1.210004
  H      -2.538109      2.407605     -0.185309
  C      -3.183335     -0.998179      0.086567
  H      -2.070044      0.404979      1.261677
  H      -4.082513     -0.921887      0.696727
  H      -3.493497     -1.160509     -0.946451
  H      -2.634354     -1.878511      0.417193
  C      -0.939867      0.497409     -1.722308
  C       0.376731      0.325027     -2.252022
  H      -1.746967      0.953024     -2.285989
  C       1.367663     -0.037598     -1.332455
  C       2.602663     -0.239483     -2.032583
  S       0.926483      0.440161     -3.852921
  C       2.504659     -0.015610     -3.372775
  H       1.638098      1.186858     -0.707349
  H       3.537809     -0.484989     -1.549741
  H       3.291877     -0.075415     -4.108933
  H      -0.532380     -3.315585     -0.358338
  H      -1.052995     -2.498744      2.188421
  H       1.207499     -1.509924      3.195574
  O       1.755175      2.321502      0.001271
  O       0.619126      1.055530      1.442246
  C       1.174897      2.137095      1.101263
  C       1.164000      3.266342      2.086137
  H       1.049372      4.221030      1.577937
  H       2.123390      3.290073      2.606034
  H       0.379160      3.138458      2.825911
  H       3.174716     -1.822596      1.386682
  H       2.066015     -2.917477     -0.836246
39
Coordinates from ORCA-job reaction4-IEIP_ts_guess_scan_14-11_orca E -1288.401422899369
  Ir      0.615876     -0.741490      0.384235
  C       0.161747     -2.859931      0.333090
  C      -0.111137     -2.437148      1.684214
  C       2.126468     -2.057998      1.241013
  C       1.542868     -2.667235      0.085126
  C       1.091494     -1.956861      2.223765
  N      -1.086114      0.104490     -0.506822
  C      -2.354937      0.270827      0.215073
  C      -3.148339      1.497354     -0.212448
  H      -3.981441      1.635781      0.474752
  H      -3.579815      1.397701     -1.209343
  H      -2.543497      2.403928     -0.181338
  C      -3.181302     -1.003710      0.082812
  H      -2.071680      0.399246      1.261123
  H      -4.081330     -0.929914      0.692000
  H      -3.489806     -1.165242     -0.950838
  H      -2.631027     -1.883351      0.412989
  C      -0.937936      0.503401     -1.719332
  C       0.376669      0.331085     -2.251441
  H      -1.745401      0.962054     -2.280029
  C       1.364795     -0.048461     -1.335891
  C       2.601378     -0.241394     -2.035363
  S       0.929206      0.463662     -3.850297
  C       2.507811      0.009576     -3.371406
  H       1.648480      1.188698     -0.718175
  H       3.534649     -0.497378     -1.554475
  H       3.297746     -0.036164     -4.105699
  H      -0.541119     -3.316426     -0.348347
  H      -1.058078     -2.497319      2.198060
  H       1.205208     -1.512825      3.202521
  O       1.760531      2.322101     -0.006762
  O       0.626023      1.056665      1.435936
  C       1.180274      2.136878      1.093915
  C       1.170462      3.268690      2.075918
  H       1.055873      4.222377      1.565890
  H       2.130159      3.293246      2.595231
  H       0.386038      3.142556      2.816481
  H       3.170365     -1.831522      1.392909
  H       2.058209     -2.926759     -0.828307
39
Coordinates from ORCA-job reaction4-IEIP_ts_guess_scan_14-11_orca E -1288.401459537159
  Ir      0.615231     -0.744117      0.384462
  C       0.159387     -2.860543      0.335804
  C      -0.114725     -2.437462      1.686710
  C       2.123584     -2.059291      1.245358
  C       1.541266     -2.669040      0.089239
  C       1.087552     -1.957310      2.227449
  N      -1.085643      0.103773     -0.507281
  C      -2.354893      0.267940      0.214776
  C      -3.149903      1.493860     -0.211236
  H      -3.982823      1.630264      0.476552
  H      -3.581832      1.394788     -1.208035
  H      -2.546275      2.401225     -0.179319
  C      -3.179874     -1.007333      0.081032
  H      -2.071993      0.395669      1.261034
  H      -4.080302     -0.934776      0.689744
  H      -3.487584     -1.168369     -0.952940
  H      -2.629048     -1.886736      0.410871
  C      -0.937494      0.507159     -1.717270
  C       0.376499      0.335531     -2.249046
  H      -1.744481      0.969002     -2.276154
  C       1.363854     -0.052247     -1.336258
  C       2.600631     -0.241440     -2.035859
  S       0.932231      0.485690     -3.845401
  C       2.507519      0.017618     -3.370725
  H       1.653505      1.188887     -0.724274
  H       3.532583     -0.505772     -1.557008
  H       3.297272     -0.026195     -4.105348
  H      -0.542954     -3.317031     -0.346204
  H      -1.062643     -2.496130      2.198917
  H       1.200607     -1.512550      3.205926
  O       1.763035      2.321493     -0.011203
  O       0.629990      1.056910      1.431558
  C       1.183263      2.136597      1.089364
  C       1.174370      3.269703      2.070365
  H       1.059733      4.222924      1.559541
  H       2.134394      3.294454      2.589068
  H       0.390463      3.144630      2.811689
  H       3.167428     -1.833266      1.398356
  H       2.057440     -2.929319     -0.823515
39
Coordinates from ORCA-job reaction4-IEIP_ts_guess_scan_14-11_orca E -1288.401479513352
  Ir      0.614757     -0.746768      0.384623
  C       0.159153     -2.861843      0.335971
  C      -0.117643     -2.437755      1.686223
  C       2.121617     -2.059581      1.248964
  C       1.541781     -2.670349      0.092098
  C       1.083623     -1.956974      2.229350
  N      -1.085939      0.103013     -0.507377
  C      -2.355203      0.266070      0.215402
  C      -3.150741      1.492162     -0.208999
  H      -3.983031      1.627490      0.479783
  H      -3.583678      1.394026     -1.205465
  H      -2.547448      2.399736     -0.176614
  C      -3.179921     -1.009182      0.080061
  H      -2.072134      0.392865      1.261717
  H      -4.080527     -0.937181      0.688584
  H      -3.487352     -1.169129     -0.954156
  H      -2.629365     -1.889018      0.409079
  C      -0.937760      0.509371     -1.715900
  C       0.376393      0.337246     -2.246734
  H      -1.743850      0.973415     -2.274218
  C       1.363862     -0.053532     -1.335338
  C       2.600583     -0.240692     -2.035265
  S       0.933124      0.493976     -3.842214
  C       2.507743      0.023180     -3.369456
  H       1.655462      1.188063     -0.728884
  H       3.532136     -0.508264     -1.557469
  H       3.297544     -0.018144     -4.104170
  H      -0.541738     -3.319005     -0.347083
  H      -1.066800     -2.495753      2.196211
  H       1.194794     -1.511523      3.207703
  O       1.763923      2.320662     -0.015638
  O       0.633182      1.056583      1.428177
  C       1.185646      2.136323      1.085266
  C       1.177515      3.270024      2.065924
  H       1.061984      4.222907      1.554687
  H       2.138153      3.295202      2.583448
  H       0.394599      3.145282      2.808362
  H       3.165101     -1.832965      1.403651
  H       2.059826     -2.930746     -0.819567
39
Coordinates from ORCA-job reaction4-IEIP_ts_guess_scan_14-11_orca E -1288.401494690991
  Ir      0.614303     -0.749400      0.384594
  C       0.160024     -2.863832      0.335509
  C      -0.120713     -2.438579      1.684834
  C       2.119509     -2.059353      1.253532
  C       1.543483     -2.671800      0.095657
  C       1.078576     -1.956544      2.231220
  N      -1.086570      0.102199     -0.506882
  C      -2.355626      0.264343      0.216601
  C      -3.151197      1.491029     -0.205951
  H      -3.983024      1.625411      0.483605
  H      -3.584810      1.394283     -1.202263
  H      -2.547944      2.398596     -0.172618
  C      -3.180389     -1.010616      0.079145
  H      -2.072196      0.389758      1.262971
  H      -4.081116     -0.939272      0.687590
  H      -3.487682     -1.168851     -0.955363
  H      -2.630284     -1.891223      0.406797
  C      -0.938256      0.511444     -1.714391
  C       0.376354      0.338996     -2.244705
  H      -1.743400      0.977659     -2.272209
  C       1.363910     -0.054083     -1.334308
  C       2.600414     -0.239887     -2.035035
  S       0.933246      0.499969     -3.839727
  C       2.507754      0.028309     -3.368534
  H       1.657255      1.188094     -0.734478
  H       3.531873     -0.509435     -1.558173
  H       3.297600     -0.010584     -4.103330
  H      -0.538520     -3.322481     -0.348940
  H      -1.071406     -2.496515      2.191971
  H       1.186730     -1.510458      3.209597
  O       1.764850      2.320654     -0.021038
  O       0.636384      1.056244      1.424337
  C       1.188102      2.136257      1.080467
  C       1.180633      3.269889      2.061313
  H       1.063894      4.222661      1.550131
  H       2.141972      3.295443      2.577509
  H       0.398823      3.144852      2.804853
  H       3.162386     -1.831630      1.410769
  H       2.064427     -2.932358     -0.814314
39
Coordinates from ORCA-job reaction4-IEIP_ts_guess_scan_14-11_orca E -1288.401504059836
  Ir      0.614145     -0.750808      0.384430
  C       0.161803     -2.865563      0.334872
  C      -0.122831     -2.439667      1.683369
  C       2.118020     -2.058519      1.257856
  C       1.545882     -2.672625      0.099026
  C       1.074167     -1.956196      2.232811
  N      -1.087201      0.101807     -0.506156
  C      -2.356134      0.263185      0.217584
  C      -3.151467      1.490638     -0.203166
  H      -3.983300      1.624119      0.486572
  H      -3.585016      1.395489     -1.199654
  H      -2.548112      2.398082     -0.168352
  C      -3.181072     -1.011410      0.077918
  H      -2.072510      0.386986      1.264092
  H      -4.081810     -0.940967      0.686467
  H      -3.488400     -1.167669     -0.956874
  H      -2.631220     -1.892804      0.403857
  C      -0.938784      0.512837     -1.713227
  C       0.376125      0.340453     -2.243794
  H      -1.743447      0.980332     -2.270627
  C       1.363712     -0.053977     -1.333876
  C       2.599889     -0.239608     -2.035625
  S       0.932416      0.502963     -3.838760
  C       2.507072      0.030763     -3.368661
  H       1.658540      1.189375     -0.739113
  H       3.531495     -0.509830     -1.559404
  H       3.296776     -0.007116     -4.103656
  H      -0.534260     -3.325989     -0.350886
  H      -1.074862     -2.498187      2.187935
  H       1.179182     -1.509777      3.211369
  O       1.765883      2.321558     -0.025037
  O       0.638686      1.056357      1.421470
  C       1.190108      2.136539      1.076996
  C       1.183165      3.269612      2.058426
  H       1.065650      4.222584      1.547769
  H       2.144990      3.295171      2.573719
  H       0.402078      3.143970      2.802604
  H       3.160249     -1.829626      1.417702
  H       2.069762     -2.933291     -0.809233
39
Coordinates from ORCA-job reaction4-IEIP_ts_guess_scan_14-11_orca E -1288.401511861709
  Ir      0.614153     -0.751409      0.384119
  C       0.165014     -2.867178      0.333693
  C      -0.124912     -2.441138      1.681195
  C       2.116542     -2.056524      1.263439
  C       1.549744     -2.672588      0.103237
  C       1.068811     -1.955628      2.234750
  N      -1.087895      0.101661     -0.505257
  C      -2.356778      0.262051      0.218532
  C      -3.151628      1.490635     -0.199775
  H      -3.983782      1.622884      0.489814
  H      -3.584619      1.397806     -1.196716
  H      -2.548021      2.397816     -0.162607
  C      -3.181994     -1.012052      0.075897
  H      -2.073091      0.383492      1.265305
  H      -4.082541     -0.943113      0.684905
  H      -3.489682     -1.165443     -0.959218
  H      -2.632146     -1.894454      0.399132
  C      -0.939610      0.513854     -1.712135
  C       0.375382      0.341838     -2.243603
  H      -1.744180      0.982098     -2.269037
  C       1.363084     -0.053437     -1.334001
  C       2.598732     -0.239838     -2.037115
  S       0.930351      0.504238     -3.838804
  C       2.505357      0.031315     -3.369823
  H       1.659451      1.191889     -0.744055
  H       3.530652     -0.510103     -1.561495
  H       3.294651     -0.006599     -4.105249
  H      -0.527589     -3.330034     -0.353897
  H      -1.078639     -2.500955      2.182408
  H       1.169471     -1.509028      3.213679
  O       1.767325      2.323118     -0.028549
  O       0.640766      1.056951      1.418703
  C       1.192327      2.137109      1.073966
  C       1.186328      3.269209      2.056425
  H       1.068522      4.222721      1.546811
  H       2.148591      3.294180      2.570942
  H       0.405805      3.142862      2.801056
  H       3.157846     -1.825958      1.426861
  H       2.077573     -2.933059     -0.802792
39
Coordinates from ORCA-job reaction4-IEIP_ts_guess_scan_14-11_orca E -1288.401516971897
  Ir      0.614287     -0.751077      0.383805
  C       0.169350     -2.868109      0.331976
  C      -0.126585     -2.442699      1.678506
  C       2.115384     -2.053366      1.269493
  C       1.554683     -2.671177      0.107544
  C       1.063400     -1.954843      2.236825
  N      -1.088561      0.101599     -0.504558
  C      -2.357479      0.260938      0.219210
  C      -3.151504      1.491020     -0.196153
  H      -3.984087      1.621917      0.493164
  H      -3.583778      1.401108     -1.193668
  H      -2.547367      2.397721     -0.156133
  C      -3.183219     -1.012473      0.073131
  H      -2.073895      0.379460      1.266351
  H      -4.083298     -0.945390      0.683027
  H      -3.491710     -1.162318     -0.962272
  H      -2.633205     -1.896074      0.392839
  C      -0.940800      0.513959     -1.711486
  C       0.373993      0.342434     -2.244153
  H      -1.745750      0.982129     -2.267939
  C       1.361997     -0.052837     -1.334738
  C       2.597050     -0.240551     -2.039107
  S       0.927339      0.503267     -3.839821
  C       2.502809      0.029759     -3.371752
  H       1.659301      1.194709     -0.748167
  H       3.529346     -0.510334     -1.563916
  H       3.291503     -0.009087     -4.107765
  H      -0.519290     -3.333491     -0.357858
  H      -1.082200     -2.504304      2.175914
  H       1.159076     -1.508247      3.216251
  O       1.768800      2.324544     -0.030707
  O       0.642106      1.057946      1.416745
  C       1.194363      2.137755      1.072154
  C       1.189936      3.268898      2.055686
  H       1.072629      4.223108      1.547252
  H       2.152535      3.292605      2.569648
  H       0.409734      3.142292      2.800602
  H       3.155587     -1.820762      1.436966
  H       2.086893     -2.930838     -0.796157
39
Coordinates from ORCA-job reaction4-IEIP_ts_guess_scan_14-11_orca E -1288.401521335056
  Ir      0.614442     -0.749977      0.383496
  C       0.175898     -2.868474      0.329127
  C      -0.128472     -2.444745      1.674452
  C       2.114114     -2.048153      1.277741
  C       1.562011     -2.667811      0.113062
  C       1.056338     -1.953643      2.239666
  N      -1.089426      0.101239     -0.504031
  C      -2.358390      0.259269      0.219879
  C      -3.150825      1.491829     -0.191018
  H      -3.983794      1.621014      0.498143
  H      -3.582429      1.406409     -1.189216
  H      -2.545524      2.397556     -0.147021
  C      -3.185254     -1.012884      0.068839
  H      -2.075003      0.373408      1.267553
  H      -4.084381     -0.948376      0.680397
  H      -3.495369     -1.157379     -0.966851
  H      -2.635039     -1.898350      0.383093
  C      -0.942824      0.512830     -1.711260
  C       0.371503      0.341931     -2.245422
  H      -1.748681      0.980080     -2.267245
  C       1.360136     -0.052458     -1.336215
  C       2.594498     -0.241736     -2.041783
  S       0.922896      0.500078     -3.841806
  C       2.499007      0.026385     -3.374600
  H       1.657577      1.197839     -0.752471
  H       3.527269     -0.510561     -1.566955
  H       3.286880     -0.013940     -4.111409
  H      -0.507182     -3.336939     -0.364111
  H      -1.086766     -2.508966      2.166374
  H       1.145013     -1.507239      3.219829
  O       1.770474      2.325654     -0.032365
  O       0.642974      1.059538      1.415102
  C       1.196710      2.138522      1.070896
  C       1.195206      3.268746      2.055525
  H       1.079397      4.223824      1.548391
  H       2.158194      3.290121      2.568881
  H       0.415260      3.142667      2.800803
  H       3.152707     -1.812535      1.450889
  H       2.100226     -2.925585     -0.787618
39
Coordinates from ORCA-job reaction4-IEIP_ts_guess_scan_14-11_orca E -1288.401525237490
  Ir      0.614492     -0.748508      0.383354
  C       0.183986     -2.868189      0.325392
  C      -0.130488     -2.447127      1.669397
  C       2.112756     -2.041440      1.287564
  C       1.571030     -2.662720      0.119327
  C       1.048190     -1.952231      2.243119
  N      -1.090502      0.100132     -0.503804
  C      -2.359429      0.256860      0.220593
  C      -3.149289      1.492973     -0.184423
  H      -3.982315      1.620440      0.504991
  H      -3.580683      1.413539     -1.183207
  H      -2.541973      2.397088     -0.135733
  C      -3.188283     -1.013275      0.063282
  H      -2.076235      0.365330      1.268891
  H      -4.086008     -0.951648      0.677179
  H      -3.500814     -1.150813     -0.972639
  H      -2.638173     -1.901339      0.370449
  C      -0.945668      0.510080     -1.711610
  C       0.368079      0.339814     -2.247128
  H      -1.752840      0.975588     -2.267224
  C       1.357664     -0.052916     -1.338229
  C       2.591486     -0.242980     -2.044555
  S       0.917818      0.495437     -3.844275
  C       2.494632      0.022513     -3.377709
  H       1.653910      1.200158     -0.756497
  H       3.524763     -0.510549     -1.570005
  H       3.281707     -0.018938     -4.115309
  H      -0.492441     -3.339789     -0.372205
  H      -1.092074     -2.514393      2.154480
  H       1.128497     -1.506240      3.224174
  O       1.771909      2.325821     -0.033846
  O       0.643215      1.061525      1.413935
  C       1.199084      2.139228      1.069992
  C       1.201844      3.268940      2.055287
  H       1.088415      4.224773      1.549075
  H       2.165295      3.287131      2.567909
  H       0.422168      3.144525      2.801149
  H       3.149335     -1.802089      1.467540
  H       2.116312     -2.917522     -0.777941
39
Coordinates from ORCA-job reaction4-IEIP_ts_guess_scan_14-11_orca E -1288.401528822110
  Ir      0.614356     -0.747384      0.383483
  C       0.191350     -2.867528      0.321854
  C      -0.132339     -2.449260      1.664706
  C       2.111467     -2.035246      1.296694
  C       1.579298     -2.657551      0.124977
  C       1.040782     -1.951046      2.246411
  N      -1.091600      0.098205     -0.503808
  C      -2.360360      0.254028      0.221373
  C      -3.147065      1.494105     -0.177589
  H      -3.979674      1.620389      0.512568
  H      -3.578910      1.420887     -1.176656
  H      -2.537192      2.396230     -0.124617
  C      -3.191791     -1.013621      0.057785
  H      -2.077238      0.356773      1.270217
  H      -4.088081     -0.954348      0.674008
  H      -3.506850     -1.144120     -0.978282
  H      -2.642357     -1.904554      0.357942
  C      -0.948641      0.506218     -1.712354
  C       0.364696      0.336444     -2.248595
  H      -1.757111      0.969657     -2.267850
  C       1.355334     -0.054480     -1.340128
  C       2.589031     -0.243606     -2.046526
  S       0.913755      0.491407     -3.846240
  C       2.491141      0.020350     -3.379970
  H       1.649168      1.200595     -0.759501
  H       3.522748     -0.509998     -1.572194
  H       3.277779     -0.020899     -4.118053
  H      -0.479029     -3.341465     -0.379968
  H      -1.097046     -2.519044      2.143241
  H       1.113509     -1.505625      3.228294
  O       1.772605      2.324876     -0.035608
  O       0.642958      1.063373      1.413230
  C       1.200947      2.139701      1.069002
  C       1.208244      3.269525      2.054205
  H       1.097317      4.225685      1.548106
  H       2.172175      3.284603      2.566030
  H       0.428904      3.147577      2.800852
  H       3.146140     -1.792478      1.482986
  H       2.130949     -2.909184     -0.769283
39
Coordinates from ORCA-job reaction4-IEIP_ts_guess_scan_14-11_orca E -1288.401531983144
  Ir      0.614171     -0.747205      0.383778
  C       0.194907     -2.867183      0.320159
  C      -0.133448     -2.450315      1.662414
  C       2.110693     -2.032383      1.301644
  C       1.583414     -2.655016      0.128045
  C       1.036884     -1.950552      2.248280
  N      -1.092289      0.096392     -0.503762
  C      -2.360857      0.251976      0.222024
  C      -3.145215      1.494735     -0.173257
  H      -3.977267      1.620765      0.517648
  H      -3.577716      1.425379     -1.172316
  H      -2.533412      2.395397     -0.117985
  C      -3.194271     -1.013822      0.054601
  H      -2.077684      0.351263      1.271146
  H      -4.089847     -0.955473      0.671969
  H      -3.510673     -1.140108     -0.981574
  H      -2.645819     -1.906710      0.350837
  C      -0.950397      0.503236     -1.712867
  C       0.362901      0.333712     -2.249091
  H      -1.759535      0.965316     -2.268515
  C       1.354225     -0.056263     -1.341018
  C       2.588174     -0.243264     -2.047088
  S       0.912243      0.490237     -3.846777
  C       2.489898      0.021136     -3.380557
  H       1.645858      1.199510     -0.760944
  H       3.522164     -0.509019     -1.572960
  H       3.276598     -0.018708     -4.118661
  H      -0.472442     -3.341985     -0.383954
  H      -1.099858     -2.521047      2.137400
  H       1.105853     -1.505593      3.230628
  O       1.772446      2.323723     -0.037491
  O       0.642756      1.064297      1.412814
  C       1.201760      2.139852      1.067801
  C       1.211713      3.270116      2.052467
  H       1.102116      4.226159      1.545882
  H       2.175968      3.283587      2.563723
  H       0.432682      3.149998      2.799742
  H       3.144385     -1.787979      1.491243
  H       2.138289     -2.904972     -0.764685
39
Coordinates from ORCA-job reaction4-IEIP_ts_guess_scan_14-11_orca E -1288.401534364469
  Ir      0.614108     -0.747498      0.383998
  C       0.195381     -2.867276      0.320013
  C      -0.133949     -2.450463      1.662087
  C       2.110380     -2.032196      1.302999
  C       1.584101     -2.654880      0.128994
  C       1.035840     -1.950504      2.248849
  N      -1.092484      0.095501     -0.503569
  C      -2.360968      0.251107      0.222401
  C      -3.144370      1.494872     -0.171681
  H      -3.976129      1.621046      0.519564
  H      -3.577190      1.426813     -1.170689
  H      -2.531768      2.394946     -0.115749
  C      -3.195182     -1.013945      0.053631
  H      -2.077747      0.349245      1.271603
  H      -4.090726     -0.955651      0.671065
  H      -3.511732     -1.138926     -0.982653
  H      -2.647382     -1.907576      0.348889
  C      -0.950854      0.502023     -1.712919
  C       0.362544      0.332623     -2.248953
  H      -1.760124      0.963610     -2.268765
  C       1.354107     -0.057261     -1.341103
  C       2.588307     -0.242621     -2.046980
  S       0.912271      0.490987     -3.846487
  C       2.490001      0.022924     -3.380309
  H       1.644713      1.198601     -0.761509
  H       3.522431     -0.508213     -1.573039
  H       3.276920     -0.015676     -4.118251
  H      -0.471379     -3.342108     -0.384634
  H      -1.100806     -2.521086      2.136194
  H       1.104121     -1.505786      3.231349
  O       1.772084      2.323271     -0.038903
  O       0.642920      1.064484      1.412472
  C       1.201943      2.139897      1.066771
  C       1.212567      3.270416      2.051101
  H       1.103204      4.226296      1.544158
  H       2.176948      3.283583      2.562128
  H       0.433698      3.150907      2.798638
  H       3.143890     -1.787622      1.493371
  H       2.139680     -2.904675     -0.763343
