39
Generated by autodE on: 2023-08-14. E = -1288.391007 Ha
Ir    0.56123  -0.74582   0.53013
C     0.00631  -2.82069   0.38749
C     0.05760  -2.38047   1.76049
C     2.16552  -2.16167   0.86102
C     1.28456  -2.65502  -0.17426
C     1.42121  -2.03125   2.04570
N    -1.03579   0.14284  -0.49858
C    -2.32257   0.45844   0.14553
C    -3.11563   1.53802  -0.57437
H    -3.95271   1.83776   0.05472
H    -3.54437   1.19562  -1.51745
H    -2.51641   2.42915  -0.76333
C    -3.13908  -0.81669   0.31699
H    -2.05377   0.83472   1.13416
H    -4.06716  -0.58967   0.83955
H    -3.39903  -1.25330  -0.64828
H    -2.61232  -1.56562   0.90671
C    -0.82872   0.34790  -1.74406
C     0.51679   0.16752  -2.23438
H    -1.62295   0.68400  -2.40516
C     1.62987   0.51125  -1.47930
C     2.82236   0.15394  -2.16729
S     0.92029  -0.50693  -3.75578
C     2.59190  -0.39229  -3.39337
H     1.54999   1.39706  -0.61377
H     3.81615   0.34709  -1.78992
H     3.32008  -0.71709  -4.12134
H    -0.87230  -3.17562  -0.13176
H    -0.74938  -2.41736   2.47764
H     1.78842  -1.65094   2.98808
O     1.38730   2.39456   0.24858
O     0.53902   0.92175   1.69461
C     0.95469   2.09325   1.36521
C     0.91969   3.11428   2.46491
H     0.85659   4.11908   2.05586
H     1.84651   3.04790   3.03833
H     0.09705   2.93706   3.15383
H     3.21370  -1.93111   0.74054
H     1.56472  -2.86248  -1.19691
