! Opt PBEh-3c
%geom Constraints
{ B 0 20 2.085714285714286 C }
{ B 24 30 1.4428571428571428 C }
    end
end
%output 
xyzfile=True 
end 
%scf 
maxiter 250 
end
%output
Print[P_Hirshfeld] = 1
end
% maxcore
4000
*xyz 1 1
Ir   0.62157159  -0.71369103   0.41210600 
C    0.13410191  -2.83215253   0.33700681 
C   -0.01853303  -2.37057604   1.69136284 
C    2.18771326  -2.06694775   1.06728876 
C    1.48035401  -2.65091196  -0.04288344 
C    1.25722025  -1.92532683   2.12767068 
N   -1.06358502   0.13447008  -0.51922645 
C   -2.33045700   0.36073042   0.19213593 
C   -3.13300854   1.53769408  -0.34327602 
H   -3.95829129   1.73926327   0.33793515 
H   -3.57768041   1.33801766  -1.31921631 
H   -2.53346454   2.44592081  -0.40812244 
C   -3.15122862  -0.92453619   0.18035750 
H   -2.04003320   0.58299365   1.21995572 
H   -4.05418072  -0.79190054   0.77483804 
H   -3.45520871  -1.18774983  -0.83357364 
H   -2.60219221  -1.76498046   0.60164067 
C   -0.91207736   0.45290509  -1.75122353 
C    0.40969066   0.26318172  -2.27279735 
H   -1.71823888   0.86895649  -2.34690674 
C    1.45808808   0.11978634  -1.35887452 
C    2.67157746  -0.16286405  -2.06357055 
S    0.88468549   0.07044864  -3.88671681 
C    2.50862224  -0.21417886  -3.41267346 
H    1.59603499   1.13048829  -0.64411991 
H    3.63550487  -0.26090474  -1.58560757 
H    3.26362033  -0.38119355  -4.16577463 
H   -0.64317453  -3.25517843  -0.28267181 
H   -0.91394001  -2.41524823   2.29240040 
H    1.46926787  -1.48148717   3.09017861 
O    1.66541281   2.34845006   0.15276224 
O    0.55139609   1.00859162   1.53850252 
C    1.08758208   2.12709239   1.22528661 
C    1.01598735   3.20521027   2.26888183 
H    1.01889916   4.18920059   1.80718178 
H    1.89935735   3.13746055   2.90629912 
H    0.14075139   3.09142949   2.90362509 
H    3.24236650  -1.84324571   1.11233469 
H    1.90485833  -2.91002768  -1.00177580 
*
