! Opt PBEh-3c
%geom Constraints
{ B 0 20 2.1714285714285713 C }
{ B 24 30 1.457142857142857 C }
    end
end
%output 
xyzfile=True 
end 
%scf 
maxiter 250 
end
%output
Print[P_Hirshfeld] = 1
end
% maxcore
4000
*xyz 1 1
Ir   0.62675421  -0.71136279   0.42263050 
C    0.10407115  -2.81875493   0.34132958 
C    0.05498194  -2.35748447   1.70271279 
C    2.21591945  -2.09658946   0.92919703 
C    1.41787527  -2.65047461  -0.13854192 
C    1.37539565  -1.94670485   2.05430225 
N   -1.04611226   0.14307731  -0.52359620 
C   -2.30842547   0.41804263   0.17991734 
C   -3.09362735   1.58047347  -0.40869076 
H   -3.91380393   1.82822709   0.26367711 
H   -3.54420377   1.34242565  -1.37320712 
H   -2.47919400   2.47450228  -0.51713811 
C   -3.14454704  -0.85560928   0.23547958 
H   -2.00941824   0.68349876   1.19478319 
H   -4.04482699  -0.67898728   0.82230013 
H   -3.45313061  -1.16972419  -0.76244067 
H   -2.60520979  -1.67753373   0.70384199 
C   -0.88894487   0.39775582  -1.76818386 
C    0.44274074   0.19481077  -2.27290504 
H   -1.69179802   0.78092850  -2.39037950 
C    1.51013209   0.23581699  -1.37335259 
C    2.72687330  -0.09132781  -2.04725224 
S    0.90625469  -0.22538641  -3.84838452 
C    2.54962221  -0.36022431  -3.36804277 
H    1.52784911   1.20912242  -0.65272192 
H    3.69907142  -0.07193610  -1.57661760 
H    3.30133894  -0.60741308  -4.10220772 
H   -0.72684475  -3.21433981  -0.22489456 
H   -0.79643605  -2.39231287   2.36556028 
H    1.66649459  -1.52065114   3.00396387 
O    1.43017791   2.42658711   0.16785234 
O    0.54746527   0.96519026   1.59781721 
C    0.97008801   2.13415455   1.27468622 
C    0.90450897   3.16294909   2.36804770 
H    0.87791028   4.16714006   1.95386138 
H    1.80155144   3.08038985   2.98468550 
H    0.04735724   3.00309388   3.01832589 
H    3.27227869  -1.87843221   0.89230991 
H    1.76918061  -2.90374719  -1.12798458 
*
