39
Coordinates from ORCA-job reaction4-IEIP_ts_guess_scan_9-13_orca E -1288.403963721376
  Ir      0.604703     -0.730778      0.457008
  C       0.115287     -2.834456      0.356098
  C      -0.078599     -2.368267      1.705101
  C       2.152097     -2.083672      1.153034
  C       1.475295     -2.658399      0.020094
  C       1.189662     -1.934679      2.184142
  N      -1.060134      0.115645     -0.507495
  C      -2.342241      0.316869      0.187777
  C      -3.133350      1.514613     -0.319257
  H      -3.968349      1.695933      0.355763
  H      -3.563053      1.352302     -1.308638
  H      -2.529160      2.421760     -0.343394
  C      -3.165247     -0.964330      0.115373
  H      -2.074665      0.505538      1.228479
  H      -4.080196     -0.851908      0.695711
  H      -3.448739     -1.191509     -0.913152
  H      -2.626615     -1.821299      0.516641
  C      -0.904035      0.446588     -1.730311
  C       0.412480      0.286060     -2.257779
  H      -1.716797      0.852081     -2.325236
  C       1.480962      0.136817     -1.382152
  C       2.678372     -0.117073     -2.109504
  S       0.859329      0.156336     -3.895107
  C       2.488979     -0.125657     -3.460014
  H       1.642936      1.162905     -0.552960
  H       3.651961     -0.230162     -1.655157
  H       3.232428     -0.264410     -4.230332
  H      -0.643335     -3.252573     -0.289396
  H      -0.991983     -2.410770      2.278857
  H       1.374045     -1.494230      3.153933
  O       1.748224      2.260900      0.161651
  O       0.550866      1.021193      1.550613
  C       1.133002      2.099794      1.231258
  C       1.090937      3.225598      2.220274
  H       0.964434      4.177539      1.709279
  H       2.045496      3.268905      2.747462
  H       0.301608      3.086561      2.953390
  H       3.205379     -1.861363      1.227048
  H       1.927387     -2.909209     -0.928358
39
Coordinates from ORCA-job reaction4-IEIP_ts_guess_scan_9-13_orca E -1288.404214686587
  Ir      0.603874     -0.731319      0.454938
  C       0.113362     -2.836951      0.358671
  C      -0.078091     -2.371386      1.708004
  C       2.150447     -2.085817      1.152499
  C       1.472570     -2.661594      0.020865
  C       1.189232     -1.936546      2.184119
  N      -1.063796      0.113864     -0.506172
  C      -2.345709      0.315012      0.189536
  C      -3.136594      1.512662     -0.318055
  H      -3.972082      1.693888      0.356344
  H      -3.565494      1.350209     -1.307783
  H      -2.532556      2.419943     -0.341845
  C      -3.168777     -0.966107      0.116979
  H      -2.078315      0.503656      1.230301
  H      -4.083882     -0.853620      0.697035
  H      -3.452051     -1.193312     -0.911619
  H      -2.630334     -1.823078      0.518439
  C      -0.904733      0.446196     -1.733759
  C       0.415863      0.288818     -2.263759
  H      -1.717050      0.853016     -2.328362
  C       1.481222      0.133098     -1.385200
  C       2.680404     -0.119986     -2.110609
  S       0.867495      0.167939     -3.900457
  C       2.495098     -0.121586     -3.461761
  H       1.645707      1.170340     -0.554686
  H       3.652651     -0.236206     -1.654017
  H       3.240676     -0.258430     -4.230284
  H      -0.646047     -3.255980     -0.285333
  H      -0.990203     -2.414655      2.283600
  H       1.374708     -1.495945      3.153621
  O       1.754227      2.268724      0.158842
  O       0.550433      1.024623      1.550857
  C       1.135812      2.104364      1.230849
  C       1.093826      3.229639      2.220239
  H       0.968143      4.182026      1.709785
  H       2.048006      3.272121      2.748158
  H       0.303799      3.090351      2.952459
  H       3.203964     -1.864491      1.225915
  H       1.923562     -2.914293     -0.927617
39
Coordinates from ORCA-job reaction4-IEIP_ts_guess_scan_9-13_orca E -1288.404299599520
  Ir      0.602669     -0.731369      0.454564
  C       0.109079     -2.837569      0.365629
  C      -0.080106     -2.371521      1.714678
  C       2.147140     -2.087238      1.155874
  C       1.468085     -2.664467      0.026059
  C       1.186694     -1.936101      2.187722
  N      -1.064969      0.112614     -0.505492
  C      -2.346995      0.312502      0.188759
  C      -3.138668      1.508607     -0.321133
  H      -3.975752      1.689285      0.351460
  H      -3.565216      1.344516     -1.311598
  H      -2.535850      2.416686     -0.344644
  C      -3.168217     -0.969833      0.116855
  H      -2.080341      0.502311      1.229504
  H      -4.084004     -0.858059      0.696012
  H      -3.450210     -1.198490     -0.911741
  H      -2.628794     -1.825549      0.519746
  C      -0.904922      0.447601     -1.734311
  C       0.416406      0.293308     -2.268045
  H      -1.718030      0.855422     -2.326933
  C       1.479382      0.126940     -1.388732
  C       2.679726     -0.121733     -2.113804
  S       0.870170      0.184516     -3.904785
  C       2.497391     -0.107712     -3.465339
  H       1.647535      1.174449     -0.557727
  H       3.650983     -0.243099     -1.656407
  H       3.244711     -0.236938     -4.233473
  H      -0.651313     -3.257236     -0.276776
  H      -0.991367     -2.413770      2.291636
  H       1.373348     -1.494302      3.156458
  O       1.761258      2.271770      0.156625
  O       0.550709      1.026284      1.548209
  C       1.139469      2.104822      1.229153
  C       1.100084      3.229036      2.218938
  H       0.976840      4.182244      1.709396
  H       2.054168      3.268727      2.747288
  H       0.309294      3.090497      2.950383
  H       3.201038     -1.867658      1.228841
  H       1.917943     -2.920303     -0.922109
39
Coordinates from ORCA-job reaction4-IEIP_ts_guess_scan_9-13_orca E -1288.404346449768
  Ir      0.601610     -0.732288      0.454856
  C       0.105199     -2.838518      0.374661
  C      -0.082743     -2.371150      1.723053
  C       2.143983     -2.088521      1.161967
  C       1.464417     -2.667844      0.033870
  C       1.183549     -1.934858      2.193586
  N      -1.065658      0.110574     -0.506694
  C      -2.348621      0.308192      0.186051
  C      -3.142290      1.503138     -0.323590
  H      -3.980429      1.681773      0.348226
  H      -3.567509      1.338723     -1.314540
  H      -2.541212      2.412398     -0.345950
  C      -3.168047     -0.975310      0.113576
  H      -2.082956      0.497889      1.227136
  H      -4.084566     -0.864779      0.691833
  H      -3.448606     -1.204418     -0.915296
  H      -2.627771     -1.830088      0.517162
  C      -0.904761      0.450347     -1.734568
  C       0.416084      0.300075     -2.271360
  H      -1.718553      0.860442     -2.324478
  C       1.476766      0.119250     -1.392317
  C       2.678200     -0.122545     -2.117674
  S       0.873718      0.218225     -3.908324
  C       2.497719     -0.093077     -3.469275
  H       1.649270      1.176733     -0.561504
  H       3.648049     -0.254180     -1.660168
  H       3.245819     -0.217239     -4.237491
  H      -0.655739     -3.259189     -0.266429
  H      -0.993675     -2.411615      2.300604
  H       1.370880     -1.491022      3.161279
  O       1.769310      2.272273      0.154547
  O       0.551683      1.028977      1.544482
  C       1.144459      2.104704      1.226957
  C       1.109256      3.229054      2.216211
  H       0.989479      4.182780      1.706831
  H       2.063432      3.265333      2.744678
  H       0.317794      3.092987      2.947388
  H       3.198211     -1.870649      1.235028
  H       1.913617     -2.927387     -0.913587
39
Coordinates from ORCA-job reaction4-IEIP_ts_guess_scan_9-13_orca E -1288.404381474568
  Ir      0.600077     -0.735497      0.456126
  C       0.099323     -2.840501      0.386631
  C      -0.088256     -2.370114      1.733748
  C       2.139036     -2.091746      1.171808
  C       1.459371     -2.673755      0.045475
  C       1.177874     -1.933520      2.202491
  N      -1.065533      0.107761     -0.508882
  C      -2.349818      0.302500      0.182592
  C      -3.145904      1.496663     -0.325204
  H      -3.984555      1.672405      0.346666
  H      -3.570654      1.332906     -1.316459
  H      -2.546710      2.407230     -0.345896
  C      -3.167540     -0.982049      0.108515
  H      -2.085318      0.491263      1.224233
  H      -4.084961     -0.872987      0.685598
  H      -3.446303     -1.210941     -0.920898
  H      -2.626698     -1.836221      0.512461
  C      -0.904187      0.453557     -1.734463
  C       0.414691      0.305270     -2.274039
  H      -1.718797      0.865852     -2.321680
  C       1.473175      0.106938     -1.396186
  C       2.676163     -0.122985     -2.122366
  S       0.874795      0.246622     -3.911134
  C       2.499382     -0.063370     -3.473575
  H       1.650548      1.174755     -0.567581
  H       3.644720     -0.264827     -1.665277
  H       3.249819     -0.170765     -4.242071
  H      -0.661927     -3.262149     -0.253451
  H      -0.999571     -2.406897      2.310887
  H       1.365585     -1.486455      3.168641
  O       1.777822      2.268605      0.149803
  O       0.553893      1.031459      1.539069
  C       1.151119      2.103009      1.222339
  C       1.122265      3.229256      2.209679
  H       1.006229      4.182855      1.699256
  H       2.077170      3.262034      2.737081
  H       0.330968      3.097643      2.941897
  H       3.193701     -1.876304      1.245571
  H       1.908378     -2.938307     -0.900662
39
Coordinates from ORCA-job reaction4-IEIP_ts_guess_scan_9-13_orca E -1288.404396068916
  Ir      0.599262     -0.737410      0.456409
  C       0.098305     -2.841252      0.389337
  C      -0.091294     -2.369154      1.735654
  C       2.137170     -2.091930      1.176500
  C       1.459144     -2.675255      0.049930
  C       1.174459     -1.932058      2.205803
  N      -1.065029      0.105996     -0.510233
  C      -2.349268      0.299915      0.182030
  C      -3.145756      1.494527     -0.323944
  H      -3.983701      1.669329      0.349016
  H      -3.571537      1.331911     -1.314975
  H      -2.546692      2.405204     -0.344108
  C      -3.166939     -0.984563      0.106810
  H      -2.084624      0.487784      1.223803
  H      -4.084502     -0.875789      0.683690
  H      -3.445399     -1.212724     -0.922854
  H      -2.626343     -1.839119      0.510316
  C      -0.904208      0.454649     -1.734284
  C       0.413784      0.306887     -2.273706
  H      -1.718761      0.868964     -2.320304
  C       1.472115      0.102724     -1.397064
  C       2.675576     -0.121970     -2.123744
  S       0.875947      0.263574     -3.910816
  C       2.498992     -0.055186     -3.474731
  H       1.650442      1.171621     -0.570327
  H       3.643582     -0.269312     -1.667272
  H       3.249415     -0.159584     -4.243667
  H      -0.661952     -3.263561     -0.251496
  H      -1.003711     -2.404419      2.311144
  H       1.360950     -1.483371      3.171429
  O       1.779321      2.265040      0.147427
  O       0.553808      1.031692      1.535926
  C       1.152523      2.101705      1.219578
  C       1.125937      3.229133      2.206129
  H       1.010930      4.182419      1.694934
  H       2.081225      3.260977      2.732889
  H       0.335007      3.099503      2.939119
  H       3.191760     -1.876563      1.251606
  H       1.909434     -2.941144     -0.895213
39
Coordinates from ORCA-job reaction4-IEIP_ts_guess_scan_9-13_orca E -1288.404401392294
  Ir      0.598924     -0.739064      0.456629
  C       0.098905     -2.842272      0.389744
  C      -0.093155     -2.368775      1.735413
  C       2.136445     -2.091843      1.179895
  C       1.460438     -2.676158      0.052619
  C       1.172031     -1.931163      2.207664
  N      -1.065092      0.104774     -0.510697
  C      -2.349102      0.298419      0.182552
  C      -3.144928      1.494392     -0.321234
  H      -3.982215      1.668632      0.352709
  H      -3.571567      1.333806     -1.312228
  H      -2.545262      2.404700     -0.340252
  C      -3.167599     -0.985364      0.105183
  H      -2.084237      0.484701      1.224522
  H      -4.085287     -0.876704      0.681900
  H      -3.445907     -1.211852     -0.924888
  H      -2.627908     -1.841005      0.507556
  C      -0.904628      0.454823     -1.734141
  C       0.413145      0.306281     -2.272953
  H      -1.718801      0.870295     -2.319843
  C       1.471850      0.100476     -1.397080
  C       2.675557     -0.120949     -2.124114
  S       0.875977      0.268189     -3.910226
  C       2.498957     -0.050649     -3.474999
  H       1.650176      1.168689     -0.572322
  H       3.643500     -0.269810     -1.668028
  H       3.249450     -0.152470     -4.244215
  H      -0.660027     -3.265353     -0.252154
  H      -1.006700     -2.403378      2.309168
  H       1.356904     -1.481474      3.173121
  O       1.778931      2.262533      0.144807
  O       0.553895      1.031445      1.534140
  C       1.153085      2.101024      1.217133
  C       1.127548      3.229173      2.203150
  H       1.011963      4.182050      1.691327
  H       2.083409      3.261283      2.728828
  H       0.337466      3.100255      2.937183
  H       3.190837     -1.875981      1.256477
  H       1.912394     -2.942487     -0.891606
39
Coordinates from ORCA-job reaction4-IEIP_ts_guess_scan_9-13_orca E -1288.404403279176
  Ir      0.598683     -0.739742      0.456605
  C       0.099515     -2.842870      0.389538
  C      -0.094682     -2.368549      1.734732
  C       2.135725     -2.091429      1.182495
  C       1.461582     -2.676510      0.054535
  C       1.169732     -1.930477      2.208827
  N      -1.065258      0.104232     -0.510562
  C      -2.349083      0.297505      0.183175
  C      -3.144505      1.494366     -0.319200
  H      -3.981616      1.668079      0.355112
  H      -3.571301      1.335215     -1.310353
  H      -2.544519      2.404484     -0.337134
  C      -3.167839     -0.985979      0.104148
  H      -2.084105      0.482641      1.225295
  H      -4.085636     -0.877775      0.680794
  H      -3.445999     -1.211227     -0.926230
  H      -2.628477     -1.842300      0.505564
  C      -0.905034      0.454824     -1.733980
  C       0.412792      0.305945     -2.272746
  H      -1.719033      0.870897     -2.319459
  C       1.471691      0.099393     -1.397249
  C       2.675431     -0.120516     -2.124620
  S       0.875734      0.270092     -3.910170
  C       2.498770     -0.048328     -3.475441
  H       1.650316      1.167504     -0.573715
  H       3.643400     -0.269917     -1.668777
  H       3.249278     -0.148808     -4.244820
  H      -0.658211     -3.266684     -0.253298
  H      -1.009115     -2.403034      2.307092
  H       1.353048     -1.480268      3.174332
  O       1.779027      2.261738      0.142827
  O       0.554094      1.031493      1.533011
  C       1.153732      2.100939      1.215424
  C       1.128880      3.229091      2.201430
  H       1.012626      4.181871      1.689555
  H       2.085226      3.261371      2.726204
  H       0.339490      3.100155      2.936186
  H       3.189931     -1.875143      1.260498
  H       1.915078     -2.943087     -0.888883
39
Coordinates from ORCA-job reaction4-IEIP_ts_guess_scan_9-13_orca E -1288.404406024905
  Ir      0.598613     -0.740355      0.456529
  C       0.101300     -2.843829      0.388880
  C      -0.096694     -2.368618      1.733373
  C       2.134946     -2.090315      1.186891
  C       1.464214     -2.676675      0.057658
  C       1.166074     -1.929505      2.210683
  N      -1.065674      0.103616     -0.510118
  C      -2.349328      0.296291      0.184053
  C      -3.143932      1.494646     -0.316114
  H      -3.981051      1.667500      0.358421
  H      -3.570546      1.337906     -1.307721
  H      -2.543349      2.404404     -0.331975
  C      -3.168638     -0.986638      0.102213
  H      -2.084314      0.479439      1.226492
  H      -4.086573     -0.879261      0.678818
  H      -3.446623     -1.209683     -0.928687
  H      -2.629789     -1.844110      0.501882
  C      -0.905836      0.454622     -1.733657
  C       0.412042      0.305484     -2.272735
  H      -1.719758      0.871262     -2.318791
  C       1.471279      0.098167     -1.397762
  C       2.674894     -0.120217     -2.125819
  S       0.874661      0.271779     -3.910408
  C       2.497874     -0.046120     -3.476519
  H       1.650708      1.166590     -0.575639
  H       3.643017     -0.269973     -1.670420
  H       3.248256     -0.145249     -4.246196
  H      -0.654218     -3.269047     -0.255610
  H      -1.012584     -2.403480      2.303392
  H       1.346476     -1.478693      3.176450
  O       1.779402      2.261361      0.140085
  O       0.554720      1.031766      1.531555
  C       1.154917      2.101067      1.213171
  C       1.131051      3.228914      2.199428
  H       1.013511      4.181710      1.687835
  H       2.088227      3.261542      2.722661
  H       0.342837      3.099486      2.935327
  H       3.188781     -1.873178      1.267500
  H       1.920477     -2.943416     -0.884384
39
Coordinates from ORCA-job reaction4-IEIP_ts_guess_scan_9-13_orca E -1288.404409177615
  Ir      0.598732     -0.740549      0.456342
  C       0.104277     -2.844748      0.387227
  C      -0.099334     -2.369057      1.730894
  C       2.133993     -2.088259      1.192910
  C       1.468364     -2.676163      0.061634
  C       1.160809     -1.928359      2.213015
  N      -1.066100      0.103241     -0.509399
  C      -2.349644      0.294959      0.185118
  C      -3.143343      1.495157     -0.312126
  H      -3.980634      1.666735      0.362524
  H      -3.569525      1.341534     -1.304397
  H      -2.542081      2.404509     -0.325158
  C      -3.169475     -0.987381      0.099658
  H      -2.084656      0.475426      1.228014
  H      -4.087407     -0.881428      0.676544
  H      -3.447508     -1.207404     -0.931879
  H      -2.630885     -1.846274      0.496691
  C      -0.906891      0.454329     -1.733144
  C       0.410864      0.305085     -2.272969
  H      -1.720978      0.871217     -2.317850
  C       1.470585      0.097191     -1.398685
  C       2.673810     -0.120400     -2.127731
  S       0.872529      0.272571     -3.910968
  C       2.496032     -0.045083     -3.478264
  H       1.651452      1.166199     -0.577732
  H       3.642208     -0.270342     -1.672969
  H       3.246039     -0.143494     -4.248397
  H      -0.647979     -3.271846     -0.259811
  H      -1.017319     -2.404941      2.297484
  H       1.336779     -1.477064      3.179371
  O       1.780171      2.261479      0.137209
  O       0.555803      1.032378      1.529974
  C       1.156580      2.101442      1.210855
  C       1.133955      3.228817      2.197557
  H       1.014715      4.181744      1.686545
  H       2.092212      3.261946      2.718771
  H       0.347269      3.098557      2.934907
  H       3.187256     -1.869872      1.277479
  H       1.928697     -2.942665     -0.878502
39
Coordinates from ORCA-job reaction4-IEIP_ts_guess_scan_9-13_orca E -1288.404414323644
  Ir      0.599288     -0.740362      0.456109
  C       0.110274     -2.845904      0.383481
  C      -0.103239     -2.370601      1.726008
  C       2.132849     -2.084235      1.202903
  C       1.476305     -2.674327      0.067797
  C       1.152074     -1.926961      2.216687
  N      -1.066692      0.102939     -0.508166
  C      -2.350164      0.293119      0.186753
  C      -3.142259      1.496366     -0.305667
  H      -3.979904      1.665903      0.369048
  H      -3.567681      1.347861     -1.299035
  H      -2.539784      2.404962     -0.314057
  C      -3.171012     -0.988162      0.095423
  H      -2.085307      0.469033      1.230450
  H      -4.088638     -0.884642      0.673241
  H      -3.449620     -1.202932     -0.937073
  H      -2.632646     -1.849441      0.487650
  C      -0.908679      0.453802     -1.732180
  C       0.408599      0.304596     -2.273478
  H      -1.723350      0.870518     -2.316216
  C       1.469190      0.096233     -1.400350
  C       2.671509     -0.121523     -2.131052
  S       0.868178      0.272152     -3.912004
  C       2.492179     -0.045778     -3.481323
  H       1.652796      1.166168     -0.580482
  H       3.640415     -0.271579     -1.677390
  H       3.241322     -0.144244     -4.252288
  H      -0.636225     -3.275969     -0.268210
  H      -1.024850     -2.408844      2.286535
  H       1.320104     -1.475319      3.184291
  O       1.781495      2.262008      0.133603
  O       0.557809      1.033498      1.528010
  C       1.159142      2.102129      1.208031
  C       1.138356      3.229041      2.195213
  H       1.016361      4.182101      1.685032
  H       2.098309      3.263238      2.713224
  H       0.354104      3.097499      2.934884
  H       3.185040     -1.863585      1.294557
  H       1.943719     -2.939570     -0.869216
39
Coordinates from ORCA-job reaction4-IEIP_ts_guess_scan_9-13_orca E -1288.404419588923
  Ir      0.600142     -0.739715      0.455978
  C       0.117498     -2.846542      0.378156
  C      -0.107085     -2.373209      1.719794
  C       2.131853     -2.079487      1.213361
  C       1.485590     -2.671224      0.073613
  C       1.142620     -1.926286      2.220244
  N      -1.067069      0.102938     -0.506827
  C      -2.350514      0.291529      0.188515
  C      -3.140974      1.497921     -0.298762
  H      -3.978896      1.665374      0.376115
  H      -3.565834      1.354670     -1.293139
  H      -2.537212      2.405682     -0.302540
  C      -3.172469     -0.988623      0.091264
  H      -2.085797      0.462566      1.233054
  H      -4.089334     -0.887815      0.670754
  H      -3.452403     -1.197628     -0.942066
  H      -2.633959     -1.852402      0.477862
  C      -0.910483      0.453359     -1.731022
  C       0.406035      0.304342     -2.274034
  H      -1.726063      0.869359     -2.314365
  C       1.467559      0.095770     -1.402142
  C       2.668675     -0.123729     -2.134493
  S       0.863075      0.270178     -3.913086
  C       2.487528     -0.048927     -3.484529
  H       1.654450      1.166486     -0.582630
  H       3.638106     -0.273984     -1.681994
  H       3.235538     -0.148675     -4.256423
  H      -0.622576     -3.279294     -0.279032
  H      -1.032757     -2.414495      2.273375
  H       1.301654     -1.474885      3.189478
  O       1.783019      2.262616      0.131033
  O       0.560078      1.034766      1.526664
  C       1.161556      2.102883      1.206069
  C       1.142336      3.229975      2.193117
  H       1.017600      4.182876      1.683264
  H       2.103877      3.265674      2.708063
  H       0.360434      3.097513      2.935095
  H       3.182777     -1.856381      1.313152
  H       1.960796     -2.933983     -0.860196
39
Coordinates from ORCA-job reaction4-IEIP_ts_guess_scan_9-13_orca E -1288.404423288292
  Ir      0.600962     -0.739107      0.456095
  C       0.122941     -2.846478      0.373353
  C      -0.109051     -2.376116      1.714858
  C       2.131547     -2.076321      1.219720
  C       1.492340     -2.668246      0.076367
  C       1.136691     -1.927060      2.222132
  N      -1.067110      0.103027     -0.505871
  C      -2.350501      0.290906      0.189851
  C      -3.139743      1.499348     -0.294201
  H      -3.977630      1.665787      0.380960
  H      -3.564624      1.359261     -1.289025
  H      -2.534987      2.406445     -0.295497
  C      -3.173490     -0.988352      0.089195
  H      -2.085802      0.458826      1.234901
  H      -4.089401     -0.889113      0.670447
  H      -3.455067     -1.193488     -0.944469
  H      -2.634769     -1.853821      0.471735
  C      -0.911525      0.453099     -1.730105
  C       0.404376      0.304256     -2.274266
  H      -1.727890      0.868282     -2.313003
  C       1.466527      0.095759     -1.403168
  C       2.666701     -0.126083     -2.136396
  S       0.859671      0.267589     -3.913624
  C       2.484308     -0.052972     -3.486336
  H       1.655718      1.166760     -0.583312
  H       3.636439     -0.276588     -1.684624
  H       3.231430     -0.154450     -4.258862
  H      -0.612850     -3.280315     -0.287905
  H      -1.037512     -2.419730      2.263561
  H       1.289602     -1.476523      3.192752
  O       1.783915      2.262852      0.130476
  O       0.561614      1.035466      1.526624
  C       1.162561      2.103319      1.205700
  C       1.143648      3.231429      2.191720
  H       1.017195      4.183722      1.681169
  H       2.105941      3.268737      2.705138
  H       0.362979      3.098930      2.935008
  H       3.181579     -1.851702      1.325291
  H       1.972637     -2.928146     -0.855649
39
Coordinates from ORCA-job reaction4-IEIP_ts_guess_scan_9-13_orca E -1288.404425155589
  Ir      0.601393     -0.738942      0.456381
  C       0.124905     -2.846094      0.370709
  C      -0.109264     -2.378183      1.712676
  C       2.131683     -2.075694      1.221089
  C       1.494707     -2.666736      0.076118
  C       1.135168     -1.928699      2.222318
  N      -1.066859      0.103085     -0.505408
  C      -2.350137      0.291144      0.190587
  C      -3.138905      1.500179     -0.292701
  H      -3.976523      1.666698      0.382780
  H      -3.564229      1.360707     -1.287428
  H      -2.533730      2.406992     -0.293859
  C      -3.173707     -0.987724      0.089436
  H      -2.085315      0.458299      1.235725
  H      -4.088918     -0.888702      0.671820
  H      -3.456488     -1.191709     -0.944126
  H      -2.634832     -1.853750      0.470503
  C      -0.911598      0.453060     -1.729618
  C       0.404060      0.304170     -2.274105
  H      -1.728285      0.867866     -2.312361
  C       1.466392      0.095711     -1.403241
  C       2.666214     -0.127519     -2.136530
  S       0.858911      0.266031     -3.913535
  C       2.483473     -0.055436     -3.486494
  H       1.656286      1.166704     -0.583023
  H       3.636000     -0.278284     -1.684944
  H       3.230255     -0.157878     -4.259223
  H      -0.609663     -3.279478     -0.292207
  H      -1.038698     -2.422568      2.259660
  H       1.286214     -1.479150      3.193686
  O       1.783981      2.262678      0.131038
  O       0.562163      1.035449      1.527362
  C       1.162240      2.103390      1.206155
  C       1.142510      3.232747      2.190832
  H       1.015427      4.184258      1.679015
  H       2.104739      3.271358      2.704262
  H       0.361937      3.100752      2.934338
  H       3.181461     -1.850883      1.328781
  H       1.976403     -2.924658     -0.855728
