39
Coordinates from ORCA-job reaction4-IEIP_ts_guess_scan_4-2_orca E -1288.399330152751
  Ir      0.596167     -0.712657      0.422536
  C       0.043397     -2.796702      0.320226
  C       0.140201     -2.345615      1.687160
  C       2.213238     -2.122822      0.709900
  C       1.301073     -2.635063     -0.287887
  C       1.508986     -1.983541      1.918849
  N      -1.052224      0.182218     -0.528864
  C      -2.316684      0.517092      0.143479
  C      -3.141604      1.557620     -0.596040
  H      -3.969182      1.867199      0.040707
  H      -3.585017      1.173595     -1.516286
  H      -2.561978      2.451416     -0.829212
  C      -3.113885     -0.756747      0.395653
  H      -2.014530      0.934837      1.105278
  H      -4.021778     -0.515057      0.946138
  H      -3.409219     -1.231804     -0.540831
  H      -2.557478     -1.478041      0.992462
  C      -0.847415      0.388806     -1.769307
  C       0.507585      0.145104     -2.216484
  H      -1.616748      0.758133     -2.441229
  C       1.601084      0.493031     -1.430682
  C       2.812177      0.057425     -2.044455
  S       0.948580     -0.655152     -3.656569
  C       2.612466     -0.568173     -3.234053
  H       1.522453      1.371843     -0.668990
  H       3.793664      0.251910     -1.636941
  H       3.355708     -0.966507     -3.908171
  H      -0.851714     -3.160268     -0.163763
  H      -0.640007     -2.378839      2.433393
  H       1.906096     -1.587860      2.842634
  O       1.279761      2.487216      0.259528
  O       0.540346      0.905307      1.648740
  C       0.893344      2.117205      1.362970
  C       0.826606      3.069841      2.524794
  H       0.774389      4.097385      2.175335
  H       1.733136      2.966042      3.124265
  H      -0.016992      2.854801      3.177613
  H       3.256631     -1.892554      0.553565
  H       1.548737     -2.861432     -1.314723
39
Coordinates from ORCA-job reaction4-IEIP_ts_guess_scan_4-2_orca E -1288.398335928437
  Ir      0.599772     -0.701021      0.415437
  C       0.060386     -2.789546      0.299413
  C       0.147436     -2.347410      1.669700
  C       2.223812     -2.104141      0.704390
  C       1.320092     -2.616299     -0.301088
  C       1.512216     -1.976580      1.910338
  N      -1.059344      0.187072     -0.534561
  C      -2.320657      0.526049      0.140422
  C      -3.150694      1.556486     -0.607382
  H      -3.976366      1.871658      0.029090
  H      -3.596830      1.161144     -1.521529
  H      -2.573727      2.448661     -0.853051
  C      -3.113093     -0.747131      0.409940
  H      -2.014787      0.954781      1.096201
  H      -4.018809     -0.502062      0.962500
  H      -3.411867     -1.232760     -0.519995
  H      -2.551504     -1.460587      1.011373
  C      -0.862503      0.378092     -1.779878
  C       0.492275      0.132577     -2.226339
  H      -1.636290      0.734224     -2.453808
  C       1.581899      0.508783     -1.447292
  C       2.795200      0.057512     -2.046779
  S       0.937579     -0.712578     -3.638774
  C       2.599776     -0.610017     -3.213822
  H       1.503171      1.440884     -0.742173
  H       3.775778      0.274514     -1.648646
  H       3.345788     -1.025614     -3.874214
  H      -0.829720     -3.156193     -0.191399
  H      -0.636035     -2.391388      2.411882
  H       1.901947     -1.584154      2.838631
  O       1.391791      2.457114      0.316116
  O       0.520146      0.906358      1.656461
  C       0.926247      2.105563      1.395447
  C       0.823400      3.062176      2.551189
  H       0.826662      4.090277      2.199392
  H       1.688944      2.928982      3.203095
  H      -0.064042      2.876877      3.152874
  H       3.266686     -1.867234      0.555256
  H       1.574635     -2.835877     -1.327676
39
Coordinates from ORCA-job reaction4-IEIP_ts_guess_scan_4-2_orca E -1288.399425837622
  Ir      0.602777     -0.716937      0.426158
  C       0.044274     -2.802202      0.327783
  C       0.136305     -2.351145      1.694743
  C       2.214109     -2.132586      0.725603
  C       1.305162     -2.644545     -0.275214
  C       1.504226     -1.989804      1.931135
  N      -1.048583      0.181844     -0.527565
  C      -2.311625      0.516833      0.145355
  C      -3.133224      1.560175     -0.593825
  H      -3.961230      1.870684      0.041898
  H      -3.575637      1.178362     -1.515518
  H      -2.551193      2.452973     -0.824877
  C      -3.110027     -0.756843      0.393878
  H      -2.008946      0.931681      1.108245
  H      -4.017528     -0.515801      0.945272
  H      -3.405998     -1.228845     -0.543937
  H      -2.553850     -1.480326      0.988363
  C      -0.845960      0.395638     -1.769627
  C       0.508288      0.155448     -2.225469
  H      -1.617357      0.770935     -2.435850
  C       1.604264      0.483586     -1.432263
  C       2.811772      0.051539     -2.058237
  S       0.942265     -0.632061     -3.674264
  C       2.607072     -0.558832     -3.254054
  H       1.541089      1.385256     -0.683656
  H       3.795553      0.241568     -1.654258
  H       3.347233     -0.949015     -3.936137
  H      -0.849379     -3.164875     -0.159518
  H      -0.646697     -2.383198      2.437984
  H       1.898097     -1.593874      2.856177
  O       1.256869      2.481132      0.256226
  O       0.536872      0.903337      1.655715
  C       0.882717      2.114813      1.365926
  C       0.817451      3.073089      2.522880
  H       0.756012      4.098503      2.168579
  H       1.728565      2.978433      3.116804
  H      -0.020385      2.855598      3.182088
  H       3.259024     -1.906551      0.574293
  H       1.556994     -2.874796     -1.300098
39
Coordinates from ORCA-job reaction4-IEIP_ts_guess_scan_4-2_orca E -1288.398225185190
  Ir      0.586540     -0.718353      0.434776
  C       0.023148     -2.802416      0.371064
  C       0.114100     -2.328304      1.729883
  C       2.193767     -2.131360      0.760209
  C       1.285158     -2.658311     -0.232742
  C       1.482259     -1.966402      1.962017
  N      -1.058522      0.163057     -0.536667
  C      -2.326597      0.491487      0.131480
  C      -3.153374      1.529878     -0.609069
  H      -3.984648      1.834956      0.025043
  H      -3.591743      1.145576     -1.531612
  H      -2.576537      2.426420     -0.838588
  C      -3.118702     -0.786549      0.378361
  H      -2.029714      0.908331      1.095267
  H      -4.029241     -0.550481      0.926945
  H      -3.409115     -1.260702     -0.560101
  H      -2.560182     -1.506503      0.974776
  C      -0.856241      0.378650     -1.777785
  C       0.498834      0.159522     -2.240517
  H      -1.630240      0.755296     -2.439945
  C       1.592756      0.459881     -1.435318
  C       2.805968      0.085585     -2.086094
  S       0.940212     -0.540777     -3.730675
  C       2.606713     -0.454723     -3.316432
  H       1.507962      1.289104     -0.614584
  H       3.787491      0.260129     -1.669646
  H       3.350224     -0.795725     -4.020988
  H      -0.870737     -3.170895     -0.111430
  H      -0.670287     -2.345092      2.472145
  H       1.875608     -1.555365      2.880673
  O       1.481725      2.439547      0.302419
  O       0.526603      0.923269      1.635341
  C       0.973424      2.107860      1.369602
  C       0.869185      3.077865      2.513704
  H       0.912120      4.102050      2.153275
  H       1.713080      2.925332      3.189331
  H      -0.038863      2.924248      3.093216
  H       3.239503     -1.910309      0.606640
  H       1.537736     -2.906583     -1.253235
39
Coordinates from ORCA-job reaction4-IEIP_ts_guess_scan_4-2_orca E -1288.399493431233
  Ir      0.595688     -0.711009      0.428953
  C       0.041414     -2.796839      0.338595
  C       0.128997     -2.339991      1.703529
  C       2.208731     -2.121287      0.738237
  C       1.303401     -2.639227     -0.262455
  C       1.495278     -1.974695      1.941402
  N      -1.051639      0.178213     -0.529726
  C      -2.318663      0.505132      0.141171
  C      -3.144366      1.548484     -0.593635
  H      -3.974642      1.851789      0.042629
  H      -3.584082      1.169447     -1.517715
  H      -2.566346      2.445254     -0.819263
  C      -3.112873     -0.772710      0.382288
  H      -2.020309      0.916784      1.106786
  H      -4.022652     -0.537743      0.932612
  H      -3.404731     -1.241735     -0.558303
  H      -2.555260     -1.496545      0.974787
  C      -0.848380      0.396038     -1.770626
  C       0.504440      0.161292     -2.231607
  H      -1.621714      0.769916     -2.435132
  C       1.602763      0.474344     -1.436173
  C       2.808482      0.046740     -2.067423
  S       0.935908     -0.592921     -3.698099
  C       2.601068     -0.538342     -3.275504
  H       1.543839      1.358810     -0.667707
  H       3.792713      0.219513     -1.656739
  H       3.339172     -0.922109     -3.963448
  H      -0.850373     -3.163073     -0.149436
  H      -0.655918     -2.369945      2.444797
  H       1.885999     -1.573710      2.865594
  O       1.343392      2.469798      0.276024
  O       0.525749      0.914137      1.648862
  C       0.915313      2.114986      1.370285
  C       0.836751      3.076103      2.523901
  H       0.818388      4.102471      2.167644
  H       1.722621      2.955215      3.150364
  H      -0.030486      2.883934      3.152283
  H       3.253683     -1.893965      0.588745
  H       1.558011     -2.873364     -1.285758
39
Coordinates from ORCA-job reaction4-IEIP_ts_guess_scan_4-2_orca E -1288.399497980286
  Ir      0.599752     -0.716659      0.430832
  C       0.040043     -2.801446      0.340809
  C       0.126615     -2.344756      1.705750
  C       2.208536     -2.131618      0.743725
  C       1.303348     -2.647360     -0.258359
  C       1.493386     -1.982584      1.945561
  N      -1.048540      0.176945     -0.530160
  C      -2.314372      0.507258      0.141254
  C      -3.136650      1.553940     -0.592618
  H      -3.965750      1.859537      0.044072
  H      -3.577836      1.177227     -1.516943
  H      -2.555648      2.448933     -0.817620
  C      -3.112829     -0.768186      0.381100
  H      -2.014630      0.917230      1.107159
  H      -4.021919     -0.530638      0.931420
  H      -3.406012     -1.235442     -0.559949
  H      -2.557740     -1.494374      0.973043
  C      -0.848148      0.389594     -1.772569
  C       0.504088      0.156252     -2.232691
  H      -1.622845      0.760241     -2.437415
  C       1.599044      0.474059     -1.435064
  C       2.807876      0.058174     -2.068021
  S       0.938817     -0.612847     -3.690156
  C       2.604655     -0.528997     -3.276030
  H       1.535026      1.369533     -0.677788
  H       3.791042      0.244547     -1.660785
  H       3.345695     -0.902420     -3.966492
  H      -0.851852     -3.165508     -0.148665
  H      -0.659546     -2.372664      2.445774
  H       1.883703     -1.582405      2.870278
  O       1.302809      2.476736      0.263105
  O       0.531991      0.910330      1.651389
  C       0.901253      2.115672      1.365587
  C       0.837577      3.074802      2.521684
  H       0.799857      4.101279      2.167288
  H       1.738447      2.963137      3.128181
  H      -0.013271      2.872201      3.168920
  H       3.254483     -1.907683      0.596229
  H       1.558913     -2.882854     -1.281094
39
Coordinates from ORCA-job reaction4-IEIP_ts_guess_scan_4-2_orca E -1288.399526730245
  Ir      0.599539     -0.715470      0.430659
  C       0.041733     -2.800391      0.339719
  C       0.127391     -2.344212      1.704798
  C       2.209487     -2.128804      0.743481
  C       1.305105     -2.644954     -0.259062
  C       1.493687     -1.980849      1.945130
  N      -1.048424      0.176175     -0.529941
  C      -2.314230      0.505552      0.142196
  C      -3.136060      1.554396     -0.589117
  H      -3.964699      1.859175      0.048573
  H      -3.577927      1.180084     -1.514086
  H      -2.554477      2.449444     -0.812373
  C      -3.113465     -0.769974      0.379192
  H      -2.014363      0.913244      1.109012
  H      -4.022481     -0.533120      0.929936
  H      -3.406793     -1.235019     -0.562907
  H      -2.558864     -1.497796      0.969586
  C      -0.848938      0.389428     -1.772315
  C       0.503107      0.158385     -2.234023
  H      -1.624462      0.760168     -2.436139
  C       1.598290      0.474276     -1.436145
  C       2.806927      0.054139     -2.066408
  S       0.938910     -0.597422     -3.697886
  C       2.603419     -0.533522     -3.274235
  H       1.534632      1.367020     -0.675730
  H       3.789875      0.232793     -1.655216
  H       3.344034     -0.913169     -3.961769
  H      -0.849674     -3.164956     -0.150281
  H      -0.659080     -2.372870      2.444452
  H       1.883316     -1.580574      2.870097
  O       1.306426      2.476994      0.262876
  O       0.531850      0.911311      1.650374
  C       0.903025      2.116058      1.364828
  C       0.836470      3.076150      2.519977
  H       0.799294      4.102352      2.164743
  H       1.736051      2.965113      3.128511
  H      -0.015747      2.873836      3.165524
  H       3.255329     -1.903969      0.596530
  H       1.561153     -2.879830     -1.281822
39
Coordinates from ORCA-job reaction4-IEIP_ts_guess_scan_4-2_orca E -1288.399535065273
  Ir      0.598212     -0.714232      0.432863
  C       0.042772     -2.799335      0.339766
  C       0.126113     -2.344097      1.705237
  C       2.209301     -2.125690      0.746733
  C       1.306800     -2.642118     -0.257315
  C       1.491633     -1.979356      1.947557
  N      -1.048165      0.175147     -0.528460
  C      -2.314461      0.503611      0.143362
  C      -3.134817      1.555094     -0.585889
  H      -3.963378      1.859325      0.052179
  H      -3.576790      1.183552     -1.511916
  H      -2.552023      2.449934     -0.806800
  C      -3.114870     -0.771947      0.376337
  H      -2.015270      0.908614      1.111487
  H      -4.024253     -0.535902      0.926833
  H      -3.407587     -1.234365     -0.567245
  H      -2.561319     -1.501736      0.965333
  C      -0.848865      0.388277     -1.770910
  C       0.502641      0.156866     -2.234386
  H      -1.625226      0.757859     -2.434398
  C       1.599066      0.469525     -1.436622
  C       2.806989      0.050729     -2.068953
  S       0.937070     -0.594307     -3.700900
  C       2.602217     -0.530139     -3.279906
  H       1.536358      1.360105     -0.673303
  H       3.790326      0.226723     -1.657592
  H       3.342026     -0.906567     -3.970078
  H      -0.847589     -3.164398     -0.151770
  H      -0.661411     -2.373823      2.443716
  H       1.879591     -1.579195      2.873280
  O       1.315420      2.472178      0.264558
  O       0.529851      0.912097      1.651476
  C       0.905791      2.115038      1.365490
  C       0.836421      3.078124      2.518056
  H       0.803406      4.103569      2.160259
  H       1.733024      2.966276      3.130836
  H      -0.019147      2.879476      3.160304
  H       3.255141     -1.899737      0.601449
  H       1.564370     -2.875987     -1.279924
39
Coordinates from ORCA-job reaction4-IEIP_ts_guess_scan_4-2_orca E -1288.399544312703
  Ir      0.598588     -0.714553      0.435119
  C       0.043558     -2.799691      0.341086
  C       0.124757     -2.344731      1.706741
  C       2.209470     -2.125804      0.751398
  C       1.308474     -2.642229     -0.254072
  C       1.489822     -1.979680      1.951112
  N      -1.047717      0.173805     -0.527802
  C      -2.314440      0.501017      0.144012
  C      -3.132451      1.556864     -0.581655
  H      -3.960762      1.860213      0.057169
  H      -3.574728      1.189898     -1.509351
  H      -2.547691      2.451330     -0.798805
  C      -3.116705     -0.774563      0.370447
  H      -2.016000      0.901505      1.114212
  H      -4.026464     -0.539849      0.920888
  H      -3.408784     -1.232511     -0.575506
  H      -2.564689     -1.507653      0.956820
  C      -0.849722      0.386310     -1.770703
  C       0.501180      0.156460     -2.235863
  H      -1.627567      0.753978     -2.433532
  C       1.597489      0.466766     -1.436949
  C       2.805653      0.050662     -2.070218
  S       0.936124     -0.590313     -3.704274
  C       2.601113     -0.526748     -3.282991
  H       1.534286      1.357906     -0.673647
  H       3.788881      0.225715     -1.658241
  H       3.341056     -0.900646     -3.974392
  H      -0.845956     -3.164777     -0.151985
  H      -0.663980     -2.374481      2.443920
  H       1.876338     -1.579556      2.877461
  O       1.314358      2.471629      0.262490
  O       0.531150      0.913410      1.652751
  C       0.905974      2.116001      1.364475
  C       0.838913      3.080843      2.515701
  H       0.804610      4.105735      2.156475
  H       1.737079      2.970272      3.126436
  H      -0.014974      2.882755      3.160349
  H       3.255608     -1.900050      0.607987
  H       1.567522     -2.876048     -1.276321
39
Coordinates from ORCA-job reaction4-IEIP_ts_guess_scan_4-2_orca E -1288.399557826378
  Ir      0.599847     -0.715222      0.439937
  C       0.046479     -2.800514      0.342299
  C       0.121881     -2.346717      1.708619
  C       2.210483     -2.125493      0.761827
  C       1.313626     -2.641653     -0.247619
  C       1.485667     -1.980734      1.958680
  N      -1.045821      0.170563     -0.525684
  C      -2.312946      0.495685      0.146852
  C      -3.124616      1.563248     -0.568961
  H      -3.951504      1.865166      0.072413
  H      -3.568703      1.208279     -1.500416
  H      -2.534143      2.456058     -0.777095
  C      -3.120633     -0.779263      0.357136
  H      -2.015477      0.884306      1.122124
  H      -4.030755     -0.547427      0.908211
  H      -3.412112     -1.225508     -0.594563
  H      -2.572479     -1.521074      0.936185
  C      -0.851437      0.380651     -1.769746
  C       0.497906      0.154269     -2.238702
  H      -1.632803      0.743887     -2.430910
  C       1.594111      0.460616     -1.438041
  C       2.802608      0.049642     -2.073015
  S       0.933698     -0.584338     -3.710607
  C       2.598306     -0.521791     -3.288983
  H       1.529856      1.353733     -0.675666
  H       3.785723      0.223176     -1.660189
  H       3.338392     -0.891173     -3.982665
  H      -0.840640     -3.165781     -0.154942
  H      -0.670052     -2.377079      2.442337
  H       1.868241     -1.581054      2.886864
  O       1.308679      2.470707      0.256296
  O       0.534342      0.915193      1.654796
  C       0.906242      2.117196      1.361381
  C       0.840473      3.086538      2.508803
  H       0.799816      4.109781      2.145596
  H       1.742331      2.982403      3.115223
  H      -0.009140      2.887224      3.158687
  H       3.257288     -1.899784      0.623350
  H       1.576635     -2.874525     -1.269074
39
Coordinates from ORCA-job reaction4-IEIP_ts_guess_scan_4-2_orca E -1288.399558210043
  Ir      0.599720     -0.714607      0.440920
  C       0.048036     -2.800387      0.342221
  C       0.121166     -2.346545      1.708693
  C       2.210983     -2.123677      0.764936
  C       1.315859     -2.640411     -0.245787
  C       1.484346     -1.979644      1.960780
  N      -1.046040      0.169662     -0.525080
  C      -2.313472      0.493692      0.147508
  C      -3.123240      1.564688     -0.565360
  H      -3.949958      1.865955      0.076543
  H      -3.567455      1.213285     -1.498090
  H      -2.531092      2.457062     -0.770523
  C      -3.122390     -0.781375      0.352402
  H      -2.016632      0.878490      1.124474
  H      -4.032731     -0.550991      0.903736
  H      -3.413476     -1.223830     -0.601181
  H      -2.575076     -1.525787      0.928916
  C      -0.852345      0.379334     -1.769336
  C       0.496798      0.153769     -2.238956
  H      -1.634474      0.741582     -2.430159
  C       1.593288      0.459645     -1.438419
  C       2.801559      0.048715     -2.073672
  S       0.932408     -0.583516     -3.711604
  C       2.596931     -0.521981     -3.289981
  H       1.529387      1.352887     -0.675974
  H       3.784808      0.221714     -1.660940
  H       3.336822     -0.891256     -3.983933
  H      -0.838022     -3.166407     -0.156344
  H      -0.671845     -2.377476      2.441228
  H       1.865309     -1.579824      2.889567
  O       1.308298      2.470736      0.254959
  O       0.533771      0.916438      1.654667
  C       0.904452      2.118514      1.359937
  C       0.842685      3.087791      2.507621
  H       0.802594      4.111099      2.144539
  H       1.745824      2.982474      3.111948
  H      -0.005687      2.889531      3.159416
  H       3.257861     -1.897350      0.628029
  H       1.580403     -2.872807     -1.266961
39
Coordinates from ORCA-job reaction4-IEIP_ts_guess_scan_4-2_orca E -1288.399558726768
  Ir      0.599937     -0.714486      0.440612
  C       0.048497     -2.800532      0.342168
  C       0.121271     -2.346199      1.708553
  C       2.211287     -2.123407      0.765298
  C       1.316422     -2.640509     -0.245476
  C       1.484391     -1.979236      1.960953
  N      -1.046350      0.169695     -0.524821
  C      -2.313848      0.493220      0.147870
  C      -3.123046      1.565242     -0.564075
  H      -3.949864      1.866163      0.077855
  H      -3.567038      1.214886     -1.497301
  H      -2.530431      2.457552     -0.768157
  C      -3.122964     -0.782030      0.350940
  H      -2.017227      0.876682      1.125414
  H      -4.033301     -0.552382      0.902591
  H      -3.414051     -1.223123     -0.603274
  H      -2.575641     -1.527285      0.926362
  C      -0.852647      0.379692     -1.769026
  C       0.496593      0.153884     -2.238545
  H      -1.634698      0.742286     -2.429768
  C       1.593437      0.460066     -1.438575
  C       2.801348      0.048385     -2.074138
  S       0.931518     -0.584609     -3.710915
  C       2.596181     -0.523028     -3.289983
  H       1.530202      1.353073     -0.675994
  H       3.784825      0.221613     -1.662035
  H       3.335780     -0.892891     -3.983931
  H      -0.837367     -3.166930     -0.156458
  H      -0.671892     -2.377103      2.440930
  H       1.865083     -1.579231      2.889771
  O       1.310900      2.470935      0.255346
  O       0.534047      0.916975      1.654096
  C       0.906170      2.118833      1.359972
  C       0.842335      3.088253      2.507420
  H       0.802438      4.111485      2.144079
  H       1.744632      2.983389      3.113070
  H      -0.006942      2.889824      3.157979
  H       3.258163     -1.897006      0.628510
  H       1.581219     -2.872953     -1.266577
