39
Generated by autodE on: 2023-08-16. E = -1288.405614 Ha
Ir    0.61076  -0.75101   0.39903
C     0.18656  -2.86634   0.33147
C    -0.14418  -2.43997   1.66968
C     2.10459  -2.03744   1.31551
C     1.57599  -2.65848   0.14106
C     1.02926  -1.94388   2.25733
N    -1.08901   0.09202  -0.50292
C    -2.36178   0.24659   0.21675
C    -3.14479   1.48944  -0.18142
H    -3.97874   1.61598   0.50712
H    -3.57453   1.41994  -1.18164
H    -2.53295   2.38999  -0.12485
C    -3.19463  -1.01884   0.04517
H    -2.08440   0.34611   1.26738
H    -4.09381  -0.96013   0.65727
H    -3.50503  -1.14568  -0.99276
H    -2.64843  -1.91196   0.34494
C    -0.94506   0.49665  -1.71257
C     0.36724   0.33460  -2.25422
H    -1.75671   0.95355  -2.26919
C     1.37058  -0.04583  -1.36127
C     2.59675  -0.22930  -2.07424
S     0.89964   0.48853  -3.86034
C     2.48345   0.03047  -3.40871
H     1.66747   1.20943  -0.72298
H     3.53613  -0.49203  -1.60925
H     3.26272  -0.00932  -4.15467
H    -0.48156  -3.33796  -0.37404
H    -1.11154  -2.50550   2.14351
H     1.09782  -1.49576   3.23832
O     1.79625   2.30813  -0.01332
O     0.63392   1.06554   1.42498
C     1.20766   2.13326   1.08687
C     1.21850   3.26909   2.06382
H     1.09600   4.22072   1.55153
H     2.18802   3.29496   2.56444
H     0.44747   3.14800   2.81901
H     3.13867  -1.79477   1.50511
H     2.13103  -2.90964  -0.75118
