39
Coordinates from ORCA-job reaction4-IEIP_ts_guess_scan_12-10_orca E -1288.402466498078
  Ir      0.613706     -0.727335      0.413272
  C       0.124588     -2.838454      0.345024
  C      -0.066885     -2.380315      1.696249
  C       2.158675     -2.074749      1.132351
  C       1.485474     -2.662085      0.006209
  C       1.193064     -1.931137      2.166475
  N      -1.070137      0.121210     -0.518016
  C      -2.343125      0.315965      0.192531
  C      -3.147235      1.509504     -0.303198
  H      -3.977682      1.681782      0.379630
  H      -3.583959      1.346657     -1.289460
  H      -2.550432      2.421552     -0.329024
  C      -3.159850     -0.969947      0.128009
  H      -2.062579      0.503266      1.230199
  H      -4.068494     -0.862570      0.719067
  H      -3.453778     -1.197256     -0.897492
  H      -2.611755     -1.824004      0.522195
  C      -0.917424      0.478986     -1.733902
  C       0.399866      0.302432     -2.250382
  H      -1.722510      0.912365     -2.318470
  C       1.428275      0.060360     -1.337791
  C       2.645839     -0.183310     -2.045755
  S       0.901011      0.260136     -3.870940
  C       2.505828     -0.102088     -3.398024
  H       1.624094      1.142021     -0.605337
  H       3.599508     -0.352530     -1.566919
  H       3.272436     -0.215601     -4.149499
  H      -0.632010     -3.266344     -0.296425
  H      -0.979718     -2.423789      2.270358
  H       1.376575     -1.484587      3.133614
  O       1.743263      2.286305      0.114558
  O       0.566417      1.029474      1.508191
  C       1.137274      2.114423      1.188001
  C       1.095585      3.235126      2.184141
  H       0.983225      4.191856      1.679131
  H       2.044567      3.264591      2.722272
  H       0.297615      3.097883      2.908288
  H       3.212344     -1.856008      1.210614
  H       1.937717     -2.924592     -0.939005
39
Coordinates from ORCA-job reaction4-IEIP_ts_guess_scan_12-10_orca E -1288.402711040717
  Ir      0.613187     -0.727567      0.411272
  C       0.124020     -2.841050      0.346882
  C      -0.065758     -2.384297      1.698666
  C       2.157835     -2.076513      1.132411
  C       1.484332     -2.664766      0.007077
  C       1.192853     -1.933636      2.166803
  N      -1.073473      0.119824     -0.516057
  C      -2.346183      0.314626      0.195149
  C      -3.149136      1.509132     -0.300084
  H      -3.980006      1.681306      0.382217
  H      -3.585080      1.347455     -1.286902
  H      -2.551775      2.420871     -0.324649
  C      -3.163951     -0.970534      0.129284
  H      -2.065797      0.500853      1.233077
  H      -4.072611     -0.863080      0.720294
  H      -3.457967     -1.196632     -0.896478
  H      -2.616617     -1.825420      0.522677
  C      -0.917631      0.479046     -1.736982
  C       0.403439      0.305013     -2.256049
  H      -1.722292      0.913503     -2.321298
  C       1.428301      0.056822     -1.341019
  C       2.647527     -0.186634     -2.047140
  S       0.909047      0.269515     -3.875580
  C       2.511646     -0.099201     -3.399505
  H       1.628544      1.149148     -0.609139
  H       3.599763     -0.358775     -1.566321
  H       3.280291     -0.211453     -4.149010
  H      -0.632848     -3.270001     -0.293569
  H      -0.977629     -2.429021      2.274095
  H       1.376827     -1.487261      3.133928
  O       1.747354      2.293192      0.111197
  O       0.566129      1.031932      1.507932
  C       1.139490      2.117648      1.187058
  C       1.095738      3.238343      2.182723
  H       0.983030      4.194958      1.677504
  H       2.044073      3.268650      2.721915
  H       0.296993      3.100245      2.905748
  H       3.211652     -1.858423      1.210644
  H       1.936053     -2.928627     -0.938030
39
Coordinates from ORCA-job reaction4-IEIP_ts_guess_scan_12-10_orca E -1288.402803851734
  Ir      0.612192     -0.727550      0.410755
  C       0.121307     -2.842102      0.352035
  C      -0.067415     -2.386311      1.703960
  C       2.155030     -2.077856      1.136285
  C       1.481638     -2.667101      0.011864
  C       1.189949     -1.934893      2.170460
  N      -1.074364      0.118878     -0.514468
  C      -2.346968      0.312490      0.195558
  C      -3.149677      1.506741     -0.300620
  H      -3.982194      1.678185      0.379894
  H      -3.583102      1.345136     -1.288547
  H      -2.552763      2.418791     -0.323579
  C      -3.163694     -0.973247      0.128711
  H      -2.067277      0.498485      1.233708
  H      -4.072802     -0.866854      0.719258
  H      -3.456855     -1.199170     -0.897302
  H      -2.615707     -1.827805      0.522076
  C      -0.917601      0.480752     -1.736812
  C       0.404029      0.309280     -2.259762
  H      -1.723148      0.916207     -2.318972
  C       1.426124      0.051088     -1.344648
  C       2.646504     -0.189155     -2.050274
  S       0.911824      0.284139     -3.878771
  C       2.513634     -0.088351     -3.402044
  H       1.632764      1.154551     -0.615199
  H       3.597602     -0.366355     -1.568980
  H       3.283957     -0.194775     -4.150661
  H      -0.635733     -3.271751     -0.287713
  H      -0.978957     -2.430864      2.279876
  H       1.374094     -1.488090      3.137357
  O       1.751258      2.297115      0.107535
  O       0.566792      1.033368      1.505450
  C       1.141352      2.118497      1.184328
  C       1.099380      3.238460      2.180103
  H       0.987171      4.195467      1.675509
  H       2.048030      3.267692      2.718867
  H       0.300786      3.100224      2.903177
  H       3.209064     -1.861089      1.215086
  H       1.933145     -2.933037     -0.932761
39
Coordinates from ORCA-job reaction4-IEIP_ts_guess_scan_12-10_orca E -1288.402863447234
  Ir      0.611518     -0.728876      0.410978
  C       0.119196     -2.843706      0.358481
  C      -0.070093     -2.388604      1.710316
  C       2.152151     -2.079489      1.143324
  C       1.480109     -2.669994      0.019238
  C       1.185768     -1.936291      2.176516
  N      -1.074583      0.117295     -0.514521
  C      -2.347881      0.308901      0.194384
  C      -3.151443      1.503445     -0.299895
  H      -3.984975      1.672653      0.379926
  H      -3.583475      1.343468     -1.288663
  H      -2.555357      2.416098     -0.320248
  C      -3.163804     -0.977255      0.125267
  H      -2.069033      0.493209      1.233120
  H      -4.073263     -0.872484      0.715583
  H      -3.456213     -1.201789     -0.901253
  H      -2.615264     -1.831903      0.517566
  C      -0.917253      0.483512     -1.735993
  C       0.403698      0.314960     -2.262081
  H      -1.723542      0.921249     -2.315220
  C       1.423300      0.043656     -1.348115
  C       2.644820     -0.191074     -2.053785
  S       0.915384      0.312447     -3.879943
  C       2.513997     -0.075985     -3.404661
  H       1.637198      1.158778     -0.623251
  H       3.594349     -0.377723     -1.572995
  H       3.285194     -0.177775     -4.153038
  H      -0.637272     -3.274235     -0.281338
  H      -0.982146     -2.432369      2.285448
  H       1.369106     -1.488543      3.143145
  O       1.754897      2.299360      0.102735
  O       0.569330      1.035275      1.501935
  C       1.144568      2.118871      1.180500
  C       1.105492      3.239497      2.175287
  H       0.993413      4.196433      1.670532
  H       2.055022      3.268115      2.712554
  H       0.307840      3.102110      2.899566
  H       3.206296     -1.863987      1.223785
  H       1.932320     -2.938057     -0.924446
39
Coordinates from ORCA-job reaction4-IEIP_ts_guess_scan_12-10_orca E -1288.402910878305
  Ir      0.610602     -0.733104      0.411995
  C       0.115710     -2.846685      0.366668
  C      -0.076017     -2.391507      1.718034
  C       2.147329     -2.083204      1.154691
  C       1.478067     -2.675313      0.030333
  C       1.178099     -1.938688      2.185726
  N      -1.073814      0.114856     -0.515180
  C      -2.347955      0.304190      0.193079
  C      -3.152338      1.499842     -0.297273
  H      -3.986233      1.666045      0.382773
  H      -3.583942      1.342998     -1.286727
  H      -2.556858      2.412989     -0.314208
  C      -3.163613     -0.981974      0.120395
  H      -2.069848      0.485584      1.232604
  H      -4.073346     -0.879024      0.710580
  H      -3.455348     -1.203919     -0.906888
  H      -2.614884     -1.837360      0.510710
  C      -0.916669      0.486398     -1.734377
  C       0.402104      0.318476     -2.263589
  H      -1.723858      0.926640     -2.310436
  C       1.419452      0.031706     -1.351816
  C       2.642817     -0.192352     -2.057752
  S       0.916242      0.335186     -3.880473
  C       2.515961     -0.049706     -3.406495
  H       1.640861      1.160399     -0.635699
  H       3.590954     -0.388095     -1.577933
  H       3.289782     -0.135697     -4.154189
  H      -0.639386     -3.278010     -0.274237
  H      -0.989731     -2.433030      2.290637
  H       1.359493     -1.489199      3.151918
  O       1.756660      2.299291      0.093241
  O       0.574503      1.036326      1.496283
  C       1.148750      2.118046      1.173059
  C       1.114657      3.240807      2.165799
  H       1.000934      4.197050      1.660151
  H       2.066468      3.269862      2.699005
  H       0.320014      3.104897      2.893704
  H       3.201570     -1.869451      1.238291
  H       1.932184     -2.946081     -0.911662
39
Coordinates from ORCA-job reaction4-IEIP_ts_guess_scan_12-10_orca E -1288.402937281017
  Ir      0.609998     -0.735998      0.412312
  C       0.115441     -2.848011      0.368404
  C      -0.080399     -2.392532      1.719255
  C       2.144649     -2.083626      1.161977
  C       1.479176     -2.676915      0.036206
  C       1.172095     -1.938880      2.190464
  N      -1.073156      0.112969     -0.516007
  C      -2.347277      0.301107      0.193098
  C      -3.151893      1.497774     -0.294235
  H      -3.985128      1.662386      0.386969
  H      -3.584459      1.343207     -1.283659
  H      -2.556424      2.410971     -0.309603
  C      -3.163010     -0.984858      0.118082
  H      -2.069002      0.480556      1.232926
  H      -4.072659     -0.882868      0.708525
  H      -3.454809     -1.204873     -0.909607
  H      -2.614333     -1.841054      0.506725
  C      -0.916761      0.488003     -1.733191
  C       0.401089      0.320760     -2.262601
  H      -1.723877      0.930979     -2.307394
  C       1.418129      0.026909     -1.352653
  C       2.641967     -0.191912     -2.059247
  S       0.918158      0.356678     -3.878223
  C       2.515240     -0.041372     -3.407279
  H       1.641939      1.160215     -0.642683
  H       3.589222     -0.394984     -1.580790
  H       3.288827     -0.124786     -4.155526
  H      -0.637462     -3.280092     -0.274577
  H      -0.996180     -2.433036      2.288610
  H       1.350522     -1.488245      3.156657
  O       1.756204      2.298464      0.087502
  O       0.577249      1.036482      1.492071
  C       1.150263      2.117677      1.168052
  C       1.118920      3.241496      2.160175
  H       1.003771      4.197367      1.654204
  H       2.072214      3.270928      2.690713
  H       0.326371      3.106242      2.890507
  H       3.198601     -1.869746      1.248845
  H       1.936155     -2.948195     -0.904263
39
Coordinates from ORCA-job reaction4-IEIP_ts_guess_scan_12-10_orca E -1288.402950945489
  Ir      0.609994     -0.738164      0.412519
  C       0.116788     -2.849177      0.367213
  C      -0.082904     -2.393150      1.717612
  C       2.143664     -2.083498      1.166228
  C       1.481574     -2.677628      0.038920
  C       1.168264     -1.938863      2.192412
  N      -1.073213      0.111915     -0.515996
  C      -2.347067      0.299763      0.194174
  C      -3.150831      1.497993     -0.290643
  H      -3.983354      1.661972      0.391607
  H      -3.584351      1.345784     -1.280018
  H      -2.554633      2.410737     -0.304665
  C      -3.163783     -0.985404      0.116630
  H      -2.068427      0.477245      1.234211
  H      -4.073348     -0.883757      0.707274
  H      -3.455813     -1.203170     -0.911469
  H      -2.615925     -1.842903      0.503486
  C      -0.917292      0.488155     -1.732492
  C       0.400507      0.319883     -2.261192
  H      -1.723892      0.932241     -2.306548
  C       1.418279      0.025585     -1.352011
  C       2.642099     -0.190968     -2.059211
  S       0.917660      0.359106     -3.876754
  C       2.515017     -0.038125     -3.407046
  H       1.641146      1.159148     -0.646204
  H       3.589473     -0.394985     -1.581407
  H       3.288447     -0.119471     -4.155682
  H      -0.634026     -3.282022     -0.277702
  H      -1.000391     -2.433471      2.284245
  H       1.343908     -1.487713      3.158854
  O       1.754338      2.298009      0.083193
  O       0.579497      1.036013      1.489891
  C       1.151017      2.117695      1.164682
  C       1.120517      3.241871      2.156677
  H       1.003172      4.197401      1.650564
  H       2.074958      3.272434      2.685058
  H       0.329776      3.106172      2.888890
  H       3.197253     -1.868886      1.255767
  H       1.941272     -2.948574     -0.900328
39
Coordinates from ORCA-job reaction4-IEIP_ts_guess_scan_12-10_orca E -1288.402961618848
  Ir      0.610099     -0.740285      0.412525
  C       0.119308     -2.850683      0.364806
  C      -0.086370     -2.394298      1.714569
  C       2.142222     -2.082651      1.172399
  C       1.485574     -2.678133      0.042719
  C       1.162269     -1.938834      2.194842
  N      -1.073447      0.110863     -0.515317
  C      -2.346815      0.298292      0.196017
  C      -3.149321      1.498648     -0.285614
  H      -3.981272      1.661797      0.397566
  H      -3.583511      1.349633     -1.275177
  H      -2.552119      2.410764     -0.297492
  C      -3.164642     -0.985910      0.114990
  H      -2.067623      0.473063      1.236327
  H      -4.074017     -0.885092      0.706092
  H      -3.457112     -1.200494     -0.913645
  H      -2.617562     -1.845142      0.499125
  C      -0.918150      0.488081     -1.731576
  C       0.399850      0.318949     -2.259986
  H      -1.724248      0.933244     -2.305459
  C       1.418427      0.024669     -1.351463
  C       2.641956     -0.190256     -2.059720
  S       0.916352      0.360011     -3.875713
  C       2.514305     -0.035388     -3.407336
  H       1.640242      1.159259     -0.651161
  H       3.589652     -0.394577     -1.582685
  H       3.287460     -0.114801     -4.156462
  H      -0.628121     -3.285014     -0.283024
  H      -1.006322     -2.435067      2.277184
  H       1.333372     -1.487317      3.161908
  O       1.752148      2.298823      0.077337
  O       0.582435      1.035674      1.487074
  C       1.152022      2.118212      1.160237
  C       1.122566      3.242062      2.152694
  H       1.002216      4.197464      1.647021
  H       2.078525      3.273902      2.678237
  H       0.334196      3.105102      2.887203
  H       3.195203     -1.866872      1.266264
  H       1.949624     -2.948508     -0.894564
39
Coordinates from ORCA-job reaction4-IEIP_ts_guess_scan_12-10_orca E -1288.402969387357
  Ir      0.610538     -0.741501      0.412444
  C       0.122834     -2.852097      0.362101
  C      -0.089323     -2.395981      1.711273
  C       2.141119     -2.081105      1.178975
  C       1.490522     -2.678031      0.046739
  C       1.156173     -1.938930      2.197324
  N      -1.073816      0.110202     -0.514316
  C      -2.346848      0.297089      0.197697
  C      -3.148011      1.499599     -0.280788
  H      -3.979843      1.661801      0.402779
  H      -3.582196      1.353893     -1.270837
  H      -2.549788      2.411073     -0.290032
  C      -3.165784     -0.986155      0.112997
  H      -2.067308      0.468943      1.238381
  H      -4.074893     -0.886471      0.704721
  H      -3.458802     -1.197277     -0.916194
  H      -2.619285     -1.847133      0.494051
  C      -0.919145      0.487878     -1.730653
  C       0.398976      0.318445     -2.259508
  H      -1.725106      0.933591     -2.304269
  C       1.418224      0.024323     -1.351461
  C       2.641251     -0.190247     -2.060965
  S       0.914265      0.359860     -3.875524
  C       2.512761     -0.034728     -3.408404
  H       1.639555      1.160839     -0.655894
  H       3.589370     -0.394407     -1.584673
  H       3.285458     -0.113467     -4.158069
  H      -0.620808     -3.288304     -0.288800
  H      -1.011771     -2.437949      2.269713
  H       1.322173     -1.487372      3.165250
  O       1.750498      2.300704      0.072279
  O       0.585324      1.035813      1.484782
  C       1.153200      2.119090      1.156585
  C       1.124771      3.242242      2.149794
  H       1.001769      4.197772      1.644966
  H       2.082094      3.275040      2.672790
  H       0.338511      3.103780      2.886255
  H       3.193392     -1.864013      1.277653
  H       1.959319     -2.947621     -0.888419
39
Coordinates from ORCA-job reaction4-IEIP_ts_guess_scan_12-10_orca E -1288.402978078217
  Ir      0.611449     -0.742138      0.412206
  C       0.129321     -2.853718      0.357174
  C      -0.093567     -2.398969      1.705482
  C       2.139582     -2.077613      1.189457
  C       1.499131     -2.676632      0.052922
  C       1.146387     -1.939078      2.201055
  N      -1.074282      0.109753     -0.512632
  C      -2.346967      0.295559      0.200035
  C      -3.146261      1.501228     -0.273599
  H      -3.978250      1.661755      0.410175
  H      -3.579986      1.360577     -1.264570
  H      -2.546600      2.411785     -0.278522
  C      -3.167330     -0.986394      0.109745
  H      -2.067090      0.462810      1.241368
  H      -4.075778     -0.888972      0.702866
  H      -3.461556     -1.191991     -0.920223
  H      -2.621155     -1.849922      0.485544
  C      -0.920777      0.487393     -1.729290
  C       0.397235      0.317985     -2.259538
  H      -1.727040      0.933209     -2.302402
  C       1.417443      0.024456     -1.352139
  C       2.639463     -0.191154     -2.063614
  S       0.910077      0.358015     -3.876136
  C       2.509364     -0.036410     -3.410867
  H       1.638563      1.164319     -0.662410
  H       3.588281     -0.394693     -1.588400
  H       3.281105     -0.115717     -4.161451
  H      -0.607961     -3.293028     -0.298816
  H      -1.020008     -2.443568      2.257079
  H       1.303765     -1.487873      3.170576
  O       1.748672      2.304124      0.065984
  O       0.589388      1.036579      1.481980
  C       1.155079      2.120672      1.152200
  C       1.128467      3.242634      2.146698
  H       1.002358      4.198604      1.643425
  H       2.087583      3.276238      2.666361
  H       0.344925      3.102128      2.885633
  H       3.190602     -1.858301      1.296191
  H       1.975737     -2.944458     -0.878809
39
Coordinates from ORCA-job reaction4-IEIP_ts_guess_scan_12-10_orca E -1288.402983614922
  Ir      0.612461     -0.741669      0.412026
  C       0.136310     -2.854557      0.352052
  C      -0.096707     -2.402077      1.699675
  C       2.138620     -2.073383      1.198933
  C       1.507877     -2.673961      0.058190
  C       1.137764     -1.939269      2.204254
  N      -1.074688      0.109646     -0.511177
  C      -2.347216      0.294430      0.201838
  C      -3.144763      1.502944     -0.267414
  H      -3.977051      1.661941      0.416339
  H      -3.577888      1.366870     -1.259282
  H      -2.543739      2.412608     -0.268340
  C      -3.168929     -0.986330      0.106543
  H      -2.067263      0.457388      1.243830
  H      -4.076491     -0.891169      0.701377
  H      -3.464695     -1.186675     -0.924030
  H      -2.622767     -1.852156      0.477106
  C      -0.922460      0.486557     -1.728226
  C       0.395130      0.317450     -2.260165
  H      -1.729479      0.931718     -2.300830
  C       1.416230      0.024900     -1.353344
  C       2.637218     -0.192764     -2.066424
  S       0.905481      0.354632     -3.877386
  C       2.505440     -0.040280     -3.413621
  H       1.637469      1.167436     -0.666901
  H       3.586666     -0.395455     -1.592065
  H       3.276139     -0.121313     -4.165085
  H      -0.594898     -3.296654     -0.308816
  H      -1.026824     -2.449689      2.244805
  H       1.286860     -1.488763      3.175402
  O       1.747709      2.306802      0.062161
  O       0.592361      1.037645      1.480496
  C       1.156702      2.122021      1.149754
  C       1.131956      3.243270      2.145081
  H       1.004388      4.199669      1.642981
  H       2.092245      3.276886      2.662590
  H       0.350113      3.101761      2.885615
  H       3.188354     -1.851804      1.313294
  H       1.991736     -2.939413     -0.870495
39
Coordinates from ORCA-job reaction4-IEIP_ts_guess_scan_12-10_orca E -1288.402987037358
  Ir      0.613342     -0.740469      0.411937
  C       0.143451     -2.854627      0.346672
  C      -0.099028     -2.405180      1.693793
  C       2.138031     -2.068642      1.207352
  C       1.516474     -2.670147      0.062427
  C       1.130186     -1.939542      2.206912
  N      -1.075023      0.109592     -0.510051
  C      -2.347449      0.293547      0.203301
  C      -3.143308      1.504709     -0.261901
  H      -3.975758      1.662436      0.421933
  H      -3.576105      1.372797     -1.254476
  H      -2.540908      2.413449     -0.259384
  C      -3.170521     -0.986049      0.103632
  H      -2.067509      0.452535      1.245907
  H      -4.076920     -0.893012      0.700552
  H      -3.468265     -1.181424     -0.927339
  H      -2.624159     -1.854002      0.468981
  C      -0.924192      0.485212     -1.727555
  C       0.392753      0.316426     -2.261173
  H      -1.732274      0.929135     -2.299695
  C       1.414704      0.025186     -1.354923
  C       2.634789     -0.194745     -2.069060
  S       0.900943      0.350092     -3.879003
  C       2.501452     -0.045282     -3.416325
  H       1.636122      1.169186     -0.669275
  H       3.584747     -0.396499     -1.595302
  H       3.271163     -0.128460     -4.168564
  H      -0.582044     -3.298983     -0.318931
  H      -1.032573     -2.455863      2.232761
  H       1.271451     -1.490007      3.179674
  O       1.747520      2.308039      0.060410
  O       0.594080      1.038819      1.480211
  C       1.157983      2.122949      1.148868
  C       1.135124      3.244241      2.144249
  H       1.007815      4.200865      1.642538
  H       2.095935      3.277121      2.660849
  H       0.353905      3.103120      2.885531
  H       3.186469     -1.844762      1.328855
  H       2.006968     -2.932567     -0.863648
39
Coordinates from ORCA-job reaction4-IEIP_ts_guess_scan_12-10_orca E -1288.402989245131
  Ir      0.613878     -0.739260      0.412063
  C       0.149650     -2.854266      0.341948
  C      -0.100506     -2.407919      1.688789
  C       2.137781     -2.064356      1.214006
  C       1.523775     -2.666180      0.065461
  C       1.124404     -1.939943      2.208988
  N      -1.075358      0.109260     -0.509315
  C      -2.347653      0.292771      0.204475
  C      -3.141835      1.506313     -0.257326
  H      -3.974183      1.663248      0.426811
  H      -3.574722      1.377917     -1.250326
  H      -2.538044      2.414105     -0.252214
  C      -3.172169     -0.985649      0.101265
  H      -2.067741      0.448440      1.247573
  H      -4.077374     -0.894193      0.700226
  H      -3.471947     -1.176757     -0.929924
  H      -2.625741     -1.855499      0.462055
  C      -0.925834      0.483463     -1.727279
  C       0.390452      0.314791     -2.262155
  H      -1.734963      0.926025     -2.299050
  C       1.413134      0.024714     -1.356479
  C       2.632680     -0.196457     -2.071038
  S       0.897348      0.345983     -3.880454
  C       2.498221     -0.049298     -3.418415
  H       1.634656      1.168780     -0.669709
  H       3.582969     -0.397471     -1.597630
  H       3.267247     -0.133846     -4.171204
  H      -0.571180     -3.300096     -0.327712
  H      -1.036888     -2.461085      2.222582
  H       1.259272     -1.491403      3.183109
  O       1.747968      2.307440      0.059983
  O       0.594603      1.039784      1.480770
  C       1.158881      2.123278      1.148858
  C       1.137627      3.245415      2.143401
  H       1.011911      4.201903      1.641079
  H       2.098349      3.277140      2.660241
  H       0.356070      3.105981      2.884676
  H       3.185091     -1.838433      1.341311
  H       2.019541     -2.925445     -0.858700
39
Coordinates from ORCA-job reaction4-IEIP_ts_guess_scan_12-10_orca E -1288.402990774626
  Ir      0.614026     -0.738490      0.412368
  C       0.154313     -2.853848      0.338272
  C      -0.101514     -2.410070      1.684989
  C       2.137634     -2.061110      1.218924
  C       1.529265     -2.662888      0.067553
  C       1.120244     -1.940422      2.210563
  N      -1.075676      0.108591     -0.508823
  C      -2.347760      0.292036      0.205524
  C      -3.140354      1.507641     -0.253576
  H      -3.972348      1.664248      0.431078
  H      -3.573689      1.382082     -1.246745
  H      -2.535230      2.414522     -0.246688
  C      -3.173704     -0.985250      0.099610
  H      -2.067792      0.445143      1.248958
  H      -4.077884     -0.894776      0.700269
  H      -3.475260     -1.172983     -0.931681
  H      -2.627445     -1.856722      0.456802
  C      -0.927244      0.481506     -1.727265
  C       0.388530      0.312696     -2.262864
  H      -1.737183      0.922920     -2.298797
  C       1.411788      0.023379     -1.357755
  C       2.631198     -0.197508     -2.072288
  S       0.895034      0.343283     -3.881461
  C       2.496114     -0.051177     -3.419754
  H       1.633307      1.166477     -0.668947
  H       3.581680     -0.398046     -1.599077
  H       3.264825     -0.135814     -4.172859
  H      -0.563039     -3.300460     -0.334585
  H      -1.040084     -2.464856      2.214775
  H       1.250393     -1.492748      3.185715
  O       1.748846      2.305466      0.059883
  O       0.594381      1.040415      1.481547
  C       1.159519      2.123134      1.148883
  C       1.139333      3.246574      2.142009
  H       1.015876      4.202627      1.638350
  H       2.099529      3.277072      2.659899
  H       0.356795      3.109525      2.882719
  H       3.184070     -1.833583      1.350524
  H       2.028875     -2.919394     -0.855309
39
Coordinates from ORCA-job reaction4-IEIP_ts_guess_scan_12-10_orca E -1288.402991860294
  Ir      0.613921     -0.738476      0.412692
  C       0.156377     -2.853800      0.336640
  C      -0.102058     -2.411109      1.683309
  C       2.137539     -2.059822      1.221342
  C       1.531767     -2.661528      0.068650
  C       1.118310     -1.940760      2.211424
  N      -1.075890      0.107855     -0.508513
  C      -2.347764      0.291500      0.206272
  C      -3.139250      1.508394     -0.251359
  H      -3.970886      1.665062      0.433732
  H      -3.573017      1.384470     -1.244544
  H      -2.533211      2.414651     -0.243617
  C      -3.174733     -0.984984      0.098890
  H      -2.067671      0.443271      1.249845
  H      -4.078444     -0.894767      0.700306
  H      -3.477150     -1.170939     -0.932468
  H      -2.628875     -1.857445      0.454319
  C      -0.928020      0.480069     -1.727304
  C       0.387554      0.311013     -2.263058
  H      -1.738276      0.920963     -2.298772
  C       1.411127      0.021809     -1.358362
  C       2.630699     -0.197602     -2.072753
  S       0.894307      0.342868     -3.881750
  C       2.495461     -0.050490     -3.420213
  H       1.632631      1.163806     -0.668024
  H       3.581274     -0.397987     -1.599679
  H       3.264210     -0.134104     -4.173398
  H      -0.559339     -3.300644     -0.337797
  H      -1.041710     -2.466369      2.211142
  H       1.246334     -1.493531      3.187057
  O       1.749696      2.303490      0.059472
  O       0.594018      1.040596      1.481848
  C       1.159885      2.122817      1.148425
  C       1.139884      3.247259      2.140386
  H       1.018162      4.202879      1.635506
  H       2.099465      3.277006      2.659455
  H       0.356327      3.111980      2.880348
  H       3.183561     -1.831534      1.354913
  H       2.033155     -2.916677     -0.853624
39
Coordinates from ORCA-job reaction4-IEIP_ts_guess_scan_12-10_orca E -1288.402992503155
  Ir      0.613842     -0.738812      0.412864
  C       0.156674     -2.854054      0.336458
  C      -0.102399     -2.411296      1.683047
  C       2.137410     -2.059852      1.222143
  C       1.532230     -2.661649      0.069209
  C       1.117695     -1.940853      2.211776
  N      -1.075953      0.107422     -0.508279
  C      -2.347708      0.291204      0.206692
  C      -3.138702      1.508642     -0.250389
  H      -3.970184      1.665401      0.434878
  H      -3.572612      1.385397     -1.243593
  H      -2.532265      2.414630     -0.242282
  C      -3.175128     -0.984915      0.098716
  H      -2.067511      0.442512      1.250294
  H      -4.078831     -0.894666      0.700149
  H      -3.477607     -1.170307     -0.932723
  H      -2.629613     -1.857768      0.453733
  C      -0.928225      0.479463     -1.727234
  C       0.387339      0.310271     -2.262950
  H      -1.738477      0.920308     -2.298723
  C       1.411030      0.020793     -1.358490
  C       2.630756     -0.197267     -2.072904
  S       0.894331      0.343737     -3.881642
  C       2.495517     -0.048948     -3.420288
  H       1.632661      1.162285     -0.667682
  H       3.581394     -0.397695     -1.599982
  H       3.264393     -0.131509     -4.173463
  H      -0.558615     -3.300986     -0.338369
  H      -1.042348     -2.466439      2.210369
  H       1.245262     -1.493725      3.187512
  O       1.750268      2.302563      0.058797
  O       0.593987      1.040581      1.481577
  C       1.160134      2.122664      1.147674
  C       1.139790      3.247464      2.139170
  H       1.018873      4.202907      1.633755
  H       2.098947      3.276949      2.659038
  H       0.355576      3.112829      2.878544
  H       3.183345     -1.831438      1.356184
  H       2.034094     -2.916656     -0.852845
