! Opt PBEh-3c
%geom Constraints
{ B 0 20 2.6 C }
{ B 24 30 1.4285714285714286 C }
    end
end
%output 
xyzfile=True 
end 
%scf 
maxiter 250 
end
%output
Print[P_Hirshfeld] = 1
end
% maxcore
4000
*xyz 1 1
Ir   0.57330541  -0.73319431   0.48215342 
C    0.02019983  -2.81149498   0.34213434 
C    0.11027351  -2.37257144   1.71507702 
C    2.18891275  -2.14661624   0.75598521 
C    1.28098582  -2.64219796  -0.25470561 
C    1.48111221  -2.02249883   1.96298719 
N   -1.04028663   0.17537122  -0.51053575 
C   -2.31403846   0.51750549   0.14204588 
C   -3.13210978   1.54605477  -0.62141046 
H   -3.96700673   1.86324768   0.00181640 
H   -3.56455921   1.14782573  -1.54076303 
H   -2.55137306   2.43728826  -0.86144195 
C   -3.11250827  -0.75367677   0.40285708 
H   -2.02474027   0.94969964   1.10157810 
H   -4.02881599  -0.50556260   0.93626404 
H   -3.39347970  -1.24397663  -0.53021926 
H   -2.56420121  -1.46469161   1.01936895 
C   -0.82298587   0.37709535  -1.75161026 
C    0.53085650   0.14766883  -2.21476075 
H   -1.59582529   0.73784257  -2.42461316 
C    1.64389988   0.56789630  -1.49799575 
C    2.84026706   0.14168304  -2.14257775 
S    0.93891170  -0.69058763  -3.64960287 
C    2.61277552  -0.53706707  -3.29847832 
H    1.55173367   1.41944105  -0.69631383 
H    3.83140524   0.37853083  -1.78395626 
H    3.34172725  -0.94109279  -3.98466965 
H   -0.87299050  -3.16713199  -0.15108384 
H   -0.67521935  -2.41213128   2.45572276 
H    1.87433147  -1.64226512   2.89484132 
O    1.28080100   2.44947194   0.27706614 
O    0.54090960   0.89108729   1.69301504 
C    0.89580702   2.09815787   1.38738121 
C    0.83495382   3.06866269   2.53374451 
H    0.78212721   4.09045078   2.16790543 
H    1.74431576   2.97389408   3.13041743 
H   -0.00565837   2.86469822   3.19379815 
H    3.23169665  -1.90975298   0.60418688 
H    1.53385980  -2.84787337  -1.28486789 
*
