39
Coordinates from ORCA-job reaction4-IEIP_ts_guess_scan_12-0_orca E -1288.396521433024
  Ir      0.641180     -0.708137      0.392763
  C       0.159448     -2.828771      0.290086
  C       0.027095     -2.383105      1.651667
  C       2.222859     -2.065212      0.996409
  C       1.497853     -2.637140     -0.109782
  C       1.310811     -1.940184      2.074653
  N      -1.052712      0.139533     -0.523274
  C      -2.306168      0.400117      0.200158
  C      -3.085075      1.591268     -0.338256
  H      -3.899154      1.819302      0.348307
  H      -3.542880      1.394899     -1.308684
  H      -2.463400      2.483438     -0.416152
  C      -3.153108     -0.867858      0.211923
  H      -1.997926      0.624905      1.221936
  H      -4.040643     -0.712493      0.823687
  H      -3.482852     -1.131490     -0.793818
  H      -2.611524     -1.715928      0.628287
  C      -0.913187      0.411967     -1.761980
  C       0.409604      0.196380     -2.264343
  H      -1.716816      0.812889     -2.371426
  C       1.453842      0.138235     -1.331603
  C       2.677774     -0.168115     -2.011975
  S       0.895947     -0.115937     -3.853816
  C       2.524204     -0.330658     -3.351716
  H       1.516614      1.147638     -0.658853
  H       3.640702     -0.207690     -1.523624
  H       3.285919     -0.540166     -4.087284
  H      -0.627992     -3.244180     -0.321953
  H      -0.859387     -2.437038      2.265223
  H       1.537672     -1.509273      3.039602
  O       1.465961      2.432082      0.114218
  O       0.571303      0.985023      1.552047
  C       0.998093      2.149037      1.220866
  C       0.929270      3.190517      2.302554
  H       0.879773      4.188712      1.875867
  H       1.837041      3.132185      2.905996
  H       0.084101      3.024447      2.966503
  H       3.277418     -1.838377      1.025416
  H       1.907711     -2.881634     -1.078888
39
Coordinates from ORCA-job reaction4-IEIP_ts_guess_scan_12-0_orca E -1288.396633199770
  Ir      0.640053     -0.702494      0.389065
  C       0.162729     -2.826677      0.290165
  C       0.030315     -2.382090      1.651952
  C       2.224095     -2.057827      0.995732
  C       1.500527     -2.632504     -0.109926
  C       1.311818     -1.934767      2.073703
  N      -1.059073      0.138959     -0.524599
  C      -2.311730      0.400401      0.199983
  C      -3.092611      1.588790     -0.341695
  H      -3.906386      1.818046      0.344786
  H      -3.550920      1.388560     -1.311109
  H      -2.472213      2.481560     -0.423105
  C      -3.157315     -0.868382      0.216996
  H      -2.002544      0.629019      1.220649
  H      -4.044352     -0.711916      0.829188
  H      -3.487954     -1.135752     -0.787479
  H      -2.614477     -1.714529      0.635624
  C      -0.918962      0.407227     -1.768887
  C       0.406752      0.192991     -2.274017
  H      -1.723694      0.804602     -2.379122
  C       1.450119      0.137959     -1.339412
  C       2.675941     -0.167154     -2.018135
  S       0.895513     -0.122742     -3.862043
  C       2.523857     -0.334313     -3.357362
  H       1.514639      1.161543     -0.685359
  H       3.638796     -0.201744     -1.529115
  H       3.286792     -0.544641     -4.091337
  H      -0.623684     -3.244869     -0.321347
  H      -0.855532     -2.438589      2.266122
  H       1.537787     -1.503278      3.038599
  O       1.532663      2.409062      0.147331
  O       0.558818      0.989022      1.553746
  C       1.018135      2.143565      1.237414
  C       0.931006      3.190697      2.312288
  H       0.917767      4.187938      1.880722
  H       1.814618      3.116272      2.948898
  H       0.058790      3.044650      2.945197
  H       3.278314     -1.829503      1.025195
  H       1.910972     -2.877902     -1.078568
39
Coordinates from ORCA-job reaction4-IEIP_ts_guess_scan_12-0_orca E -1288.396041747201
  Ir      0.649486     -0.709634      0.392410
  C       0.159482     -2.835237      0.288548
  C       0.031169     -2.400011      1.653456
  C       2.224170     -2.080705      0.996905
  C       1.497961     -2.646654     -0.111280
  C       1.312390     -1.959165      2.075248
  N      -1.048381      0.145443     -0.510587
  C      -2.300271      0.406763      0.214796
  C      -3.073573      1.604087     -0.318135
  H      -3.888262      1.831092      0.367966
  H      -3.529798      1.414900     -1.290782
  H      -2.448672      2.494591     -0.389547
  C      -3.152918     -0.857350      0.218244
  H      -1.991706      0.624251      1.238086
  H      -4.040388     -0.701652      0.829989
  H      -3.483034     -1.113512     -0.789344
  H      -2.615863     -1.710460      0.630136
  C      -0.899916      0.428246     -1.759441
  C       0.429857      0.211722     -2.272040
  H      -1.701644      0.837000     -2.365937
  C       1.470193      0.124641     -1.334039
  C       2.694123     -0.190306     -2.014396
  S       0.919323     -0.088914     -3.862577
  C       2.543145     -0.335932     -3.355861
  H       1.565985      1.161228     -0.695308
  H       3.655473     -0.244144     -1.523932
  H       3.304974     -0.548190     -4.090288
  H      -0.629031     -3.247341     -0.324447
  H      -0.854096     -2.456300      2.268338
  H       1.540798     -1.534571      3.042612
  O       1.333682      2.425518      0.077743
  O       0.568088      0.974833      1.570674
  C       0.942020      2.147042      1.215022
  C       0.898520      3.199070      2.287498
  H       0.794218      4.189884      1.853530
  H       1.838837      3.176430      2.841338
  H       0.096030      3.014671      2.997841
  H       3.279944     -1.860156      1.028826
  H       1.907056     -2.891989     -1.080525
39
Coordinates from ORCA-job reaction4-IEIP_ts_guess_scan_12-0_orca E -1288.396790648513
  Ir      0.641300     -0.707064      0.391845
  C       0.154468     -2.830871      0.297526
  C       0.025949     -2.387064      1.659699
  C       2.219247     -2.069830      0.999996
  C       1.492575     -2.642400     -0.104521
  C       1.308322     -1.943268      2.078843
  N      -1.055225      0.139714     -0.519182
  C      -2.308795      0.398247      0.203454
  C      -3.088331      1.588566     -0.335946
  H      -3.904423      1.814935      0.348769
  H      -3.543327      1.391774     -1.307635
  H      -2.467984      2.481816     -0.411998
  C      -3.154244     -0.870735      0.213311
  H      -2.001652      0.622624      1.225609
  H      -4.042710     -0.716798      0.824088
  H      -3.482538     -1.134078     -0.792980
  H      -2.612271     -1.718499      0.629831
  C      -0.912473      0.416156     -1.763124
  C       0.413828      0.204124     -2.271848
  H      -1.716650      0.818932     -2.370395
  C       1.455921      0.130472     -1.335908
  C       2.682117     -0.171464     -2.016922
  S       0.903571     -0.094621     -3.862409
  C       2.531410     -0.317408     -3.358623
  H       1.530230      1.156751     -0.682190
  H       3.644177     -0.215839     -1.527147
  H       3.294688     -0.519541     -4.094576
  H      -0.634179     -3.246595     -0.312756
  H      -0.859259     -2.440056      2.275049
  H       1.537008     -1.512445      3.043383
  O       1.473427      2.426116      0.114984
  O       0.569806      0.986163      1.553528
  C       1.000008      2.148208      1.221344
  C       0.929614      3.193647      2.298551
  H       0.884187      4.190341      1.867930
  H       1.834789      3.135220      2.905779
  H       0.081277      3.031844      2.959423
  H       3.274561     -1.846693      1.029110
  H       1.900950     -2.891192     -1.073152
39
Coordinates from ORCA-job reaction4-IEIP_ts_guess_scan_12-0_orca E -1288.396817906880
  Ir      0.641058     -0.708630      0.392502
  C       0.153361     -2.832213      0.300897
  C       0.024970     -2.387980      1.662815
  C       2.218248     -2.071418      1.002557
  C       1.491578     -2.644536     -0.101495
  C       1.307191     -1.944086      2.081348
  N      -1.054571      0.138391     -0.519576
  C      -2.308254      0.396745      0.202946
  C      -3.087897      1.587649     -0.335102
  H      -3.903825      1.813422      0.349987
  H      -3.543158      1.391778     -1.306827
  H      -2.467517      2.480942     -0.410433
  C      -3.154127     -0.872006      0.212092
  H      -2.000974      0.620222      1.225333
  H      -4.042609     -0.718116      0.822879
  H      -3.482378     -1.134650     -0.794384
  H      -2.612480     -1.720127      0.628204
  C      -0.911910      0.416868     -1.762522
  C       0.413604      0.205900     -2.272120
  H      -1.716112      0.821287     -2.368586
  C       1.455371      0.127380     -1.336136
  C       2.681640     -0.171624     -2.018336
  S       0.904510     -0.079188     -3.864564
  C       2.531110     -0.311130     -3.360720
  H       1.531381      1.156219     -0.684978
  H       3.643313     -0.220592     -1.528292
  H       3.294245     -0.511154     -4.097399
  H      -0.635360     -3.248166     -0.309125
  H      -0.860377     -2.439940      2.278044
  H       1.536043     -1.512574      3.045542
  O       1.477940      2.424581      0.114023
  O       0.570601      0.986418      1.551986
  C       1.003053      2.147292      1.219963
  C       0.929744      3.194487      2.295448
  H       0.885339      4.190570      1.863299
  H       1.833371      3.137012      2.905085
  H       0.079724      3.033573      2.954399
  H       3.273689     -1.848920      1.031858
  H       1.899832     -2.894496     -1.069870
39
Coordinates from ORCA-job reaction4-IEIP_ts_guess_scan_12-0_orca E -1288.396864725368
  Ir      0.638586     -0.716196      0.396566
  C       0.144681     -2.838114      0.318828
  C       0.017269     -2.390795      1.679363
  C       2.210895     -2.080105      1.016729
  C       1.483728     -2.655842     -0.084945
  C       1.299262     -1.947298      2.095007
  N      -1.052811      0.133348     -0.520978
  C      -2.308112      0.388458      0.200104
  C      -3.089609      1.580399     -0.333165
  H      -3.905965      1.802072      0.352658
  H      -3.544602      1.387665     -1.305599
  H      -2.470659      2.475023     -0.404748
  C      -3.153365     -0.880915      0.204772
  H      -2.001999      0.608493      1.223804
  H      -4.043027     -0.729025      0.814376
  H      -3.479558     -1.141050     -0.803005
  H      -2.612012     -1.729660      0.619721
  C      -0.909334      0.422021     -1.760177
  C       0.413268      0.214334     -2.273335
  H      -1.713687      0.832429     -2.361857
  C       1.452629      0.111047     -1.336410
  C       2.680193     -0.172052     -2.023618
  S       0.908214     -0.022552     -3.871324
  C       2.533728     -0.268242     -3.370183
  H       1.536546      1.150952     -0.696225
  H       3.640054     -0.238940     -1.532296
  H       3.298524     -0.446427     -4.110746
  H      -0.644745     -3.254733     -0.289835
  H      -0.868807     -2.436744      2.293956
  H       1.529211     -1.512002      3.057253
  O       1.490336      2.419202      0.103404
  O       0.574926      0.988803      1.544441
  C       1.010473      2.145948      1.208677
  C       0.941169      3.198173      2.280219
  H       0.901682      4.192836      1.844346
  H       1.844015      3.138972      2.890933
  H       0.089857      3.043545      2.939029
  H       3.267121     -1.861545      1.046882
  H       1.891298     -2.912294     -1.051882
39
Coordinates from ORCA-job reaction4-IEIP_ts_guess_scan_12-0_orca E -1288.396865711844
  Ir      0.637883     -0.717790      0.397277
  C       0.140579     -2.838333      0.322238
  C       0.013610     -2.389891      1.682547
  C       2.207895     -2.082951      1.020128
  C       1.480217     -2.658683     -0.081274
  C       1.296112     -1.947566      2.098034
  N      -1.052634      0.133922     -0.520273
  C      -2.308624      0.385523      0.201012
  C      -3.092109      1.576500     -0.331272
  H      -3.909055      1.795615      0.354653
  H      -3.546463      1.384077     -1.304136
  H      -2.474971      2.472481     -0.401601
  C      -3.151174     -0.885619      0.203109
  H      -2.003734      0.604785      1.225152
  H      -4.041825     -0.736308      0.811851
  H      -3.475673     -1.145236     -0.805370
  H      -2.608515     -1.733807      0.617627
  C      -0.908342      0.427962     -1.758980
  C       0.414563      0.221239     -2.273098
  H      -1.712483      0.840995     -2.359300
  C       1.453071      0.107156     -1.336256
  C       2.680449     -0.174035     -2.024900
  S       0.910847     -0.001557     -3.872677
  C       2.534689     -0.259067     -3.372356
  H       1.541177      1.146866     -0.694612
  H       3.639644     -0.249166     -1.533366
  H       3.299358     -0.434209     -4.113768
  H      -0.649268     -3.254330     -0.286337
  H      -0.872784     -2.433678      2.296815
  H       1.526525     -1.511302      3.059739
  O       1.497145      2.418250      0.100148
  O       0.577911      0.989907      1.541881
  C       1.016572      2.145798      1.205709
  C       0.944235      3.200476      2.274507
  H       0.905343      4.194083      1.836167
  H       1.845673      3.143006      2.887359
  H       0.091419      3.047005      2.931585
  H       3.264456     -1.866052      1.050579
  H       1.887651     -2.916877     -1.047801
39
Coordinates from ORCA-job reaction4-IEIP_ts_guess_scan_12-0_orca E -1288.396865603335
  Ir      0.637505     -0.718458      0.397403
  C       0.138747     -2.837927      0.323548
  C       0.010612     -2.388242      1.683519
  C       2.206049     -2.083698      1.023483
  C       1.479172     -2.659720     -0.078376
  C       1.293153     -1.946521      2.100230
  N      -1.052487      0.134627     -0.520204
  C      -2.308813      0.383650      0.201500
  C      -3.094407      1.573192     -0.330768
  H      -3.911571      1.790714      0.355411
  H      -3.548626      1.380016     -1.303572
  H      -2.478979      2.470337     -0.401193
  C      -3.149006     -0.889023      0.202753
  H      -2.004594      0.603309      1.225723
  H      -4.040555     -0.741328      0.810584
  H      -3.472027     -1.149280     -0.806030
  H      -2.605335     -1.736281      0.617781
  C      -0.907765      0.433006     -1.758286
  C       0.415222      0.226631     -2.272970
  H      -1.711619      0.848193     -2.357455
  C       1.453307      0.104397     -1.336835
  C       2.679921     -0.176677     -2.026675
  S       0.911710      0.012994     -3.873885
  C       2.534183     -0.253750     -3.374733
  H       1.545420      1.143009     -0.692886
  H       3.638732     -0.258313     -1.535388
  H       3.298473     -0.427282     -4.116903
  H      -0.650627     -3.253880     -0.285660
  H      -0.876501     -2.430876      2.296833
  H       1.522861     -1.509364      3.061701
  O       1.503391      2.415854      0.099642
  O       0.577805      0.990730      1.540188
  C       1.017847      2.146017      1.203848
  C       0.946837      3.201546      2.271743
  H       0.911064      4.194846      1.832455
  H       1.847314      3.142278      2.885806
  H       0.092704      3.050747      2.927685
  H       3.262710     -1.867396      1.054968
  H       1.887541     -2.918887     -1.044243
39
Coordinates from ORCA-job reaction4-IEIP_ts_guess_scan_12-0_orca E -1288.396865080828
  Ir      0.637803     -0.719448      0.397352
  C       0.137646     -2.837821      0.324169
  C       0.007532     -2.386594      1.683673
  C       2.204612     -2.084920      1.027391
  C       1.479105     -2.661117     -0.075319
  C       1.289977     -1.945831      2.102426
  N      -1.051768      0.135714     -0.519992
  C      -2.308235      0.382452      0.202382
  C      -3.096154      1.570614     -0.329561
  H      -3.913224      1.786655      0.357207
  H      -3.550694      1.376614     -1.302051
  H      -2.482457      2.468910     -0.400403
  C      -3.146482     -0.891484      0.203081
  H      -2.004290      0.602574      1.226591
  H      -4.038989     -0.744982      0.809841
  H      -3.467988     -1.152518     -0.805968
  H      -2.602262     -1.737910      0.618883
  C      -0.906789      0.438861     -1.757105
  C       0.415717      0.231882     -2.272729
  H      -1.710265      0.856682     -2.354783
  C       1.453708      0.100728     -1.338106
  C       2.678921     -0.180668     -2.029757
  S       0.910797      0.024668     -3.875200
  C       2.532730     -0.247603     -3.378482
  H       1.551082      1.137516     -0.690675
  H       3.637643     -0.268593     -1.539386
  H       3.296504     -0.418037     -4.121890
  H      -0.650862     -3.253850     -0.286072
  H      -0.880538     -2.428239      2.295682
  H       1.518444     -1.507865      3.063823
  O       1.514662      2.410758      0.101490
  O       0.577771      0.990812      1.538987
  C       1.022719      2.144493      1.203807
  C       0.946528      3.202890      2.268278
  H       0.914140      4.194924      1.825857
  H       1.843504      3.144517      2.887477
  H       0.088497      3.054732      2.919711
  H       3.261346     -1.869161      1.060426
  H       1.888978     -2.921167     -1.040309
39
Coordinates from ORCA-job reaction4-IEIP_ts_guess_scan_12-0_orca E -1288.396868198029
  Ir      0.637969     -0.719097      0.397103
  C       0.138745     -2.837703      0.323817
  C       0.006731     -2.385686      1.682957
  C       2.204636     -2.083973      1.029442
  C       1.480672     -2.660697     -0.073936
  C       1.288551     -1.944733      2.103257
  N      -1.051913      0.136143     -0.520104
  C      -2.308564      0.382095      0.202223
  C      -3.097657      1.569686     -0.329433
  H      -3.914768      1.784975      0.357510
  H      -3.552259      1.375294     -1.301806
  H      -2.484825      2.468582     -0.400328
  C      -3.146212     -0.892241      0.202675
  H      -2.004706      0.602388      1.226439
  H      -4.039248     -0.746048      0.808745
  H      -3.466898     -1.153579     -0.806554
  H      -2.602076     -1.738433      0.618990
  C      -0.906815      0.440737     -1.756685
  C       0.415269      0.233628     -2.272724
  H      -1.710165      0.859572     -2.353783
  C       1.453486      0.099991     -1.339051
  C       2.677930     -0.181983     -2.031518
  S       0.909215      0.027740     -3.875909
  C       2.530827     -0.247434     -3.380289
  H       1.553208      1.135377     -0.689107
  H       3.636862     -0.271408     -1.541853
  H       3.294107     -0.418096     -4.124154
  H      -0.648761     -3.254496     -0.287184
  H      -0.881891     -2.427783      2.294132
  H       1.515640     -1.506448      3.064836
  O       1.522227      2.408070      0.104171
  O       0.576794      0.991154      1.538895
  C       1.025205      2.143835      1.204643
  C       0.947421      3.203032      2.268130
  H       0.917883      4.194751      1.824797
  H       1.842460      3.143800      2.890040
  H       0.087187      3.056704      2.917075
  H       3.261231     -1.867714      1.063625
  H       1.891875     -2.920816     -1.038344
39
Coordinates from ORCA-job reaction4-IEIP_ts_guess_scan_12-0_orca E -1288.396871232622
  Ir      0.637697     -0.717885      0.396684
  C       0.140802     -2.837412      0.323563
  C       0.004373     -2.383916      1.681866
  C       2.203951     -2.081252      1.034607
  C       1.483737     -2.659524     -0.070190
  C       1.284430     -1.942050      2.105622
  N      -1.052609      0.136982     -0.520070
  C      -2.309827      0.380819      0.201740
  C      -3.101439      1.567060     -0.329431
  H      -3.919077      1.780290      0.357482
  H      -3.555547      1.371874     -1.301877
  H      -2.490691      2.467424     -0.399895
  C      -3.145699     -0.894712      0.201157
  H      -2.006525      0.601284      1.226125
  H      -4.039976     -0.749753      0.805706
  H      -3.464398     -1.156427     -0.808608
  H      -2.601360     -1.740352      0.618305
  C      -0.907237      0.444363     -1.755682
  C       0.413917      0.237555     -2.272963
  H      -1.710549      0.865150     -2.351480
  C       1.452521      0.098409     -1.341111
  C       2.675534     -0.184428     -2.035404
  S       0.905711      0.035629     -3.877622
  C       2.526715     -0.245668     -3.384286
  H       1.558168      1.131150     -0.686417
  H       3.634861     -0.277116     -1.547152
  H       3.289072     -0.416316     -4.129111
  H      -0.644321     -3.256098     -0.289191
  H      -0.885547     -2.427183      2.291060
  H       1.508177     -1.502984      3.067635
  O       1.539476      2.402358      0.109624
  O       0.574799      0.992400      1.538438
  C       1.032066      2.142325      1.206232
  C       0.951693      3.203317      2.267728
  H       0.928109      4.194403      1.822582
  H       1.842939      3.142170      2.894859
  H       0.087193      3.061008      2.911873
  H       3.260202     -1.863788      1.071547
  H       1.898031     -2.919916     -1.033204
39
Coordinates from ORCA-job reaction4-IEIP_ts_guess_scan_12-0_orca E -1288.396871751790
  Ir      0.637122     -0.717111      0.396593
  C       0.142022     -2.837350      0.323535
  C       0.002771     -2.383296      1.681407
  C       2.203264     -2.079176      1.038050
  C       1.485560     -2.658639     -0.067649
  C       1.281559     -1.940381      2.107346
  N      -1.053478      0.137280     -0.520028
  C      -2.311127      0.379729      0.201400
  C      -3.103860      1.565354     -0.329472
  H      -3.921977      1.777289      0.357256
  H      -3.557415      1.370011     -1.302151
  H      -2.494169      2.466480     -0.399306
  C      -3.145898     -0.896557      0.199779
  H      -2.008399      0.599999      1.226014
  H      -4.040802     -0.752651      0.803656
  H      -3.463558     -1.158073     -0.810371
  H      -2.601224     -1.741966      0.616928
  C      -0.907969      0.445921     -1.755297
  C       0.412816      0.239577     -2.273243
  H      -1.711390      0.867346     -2.350518
  C       1.451583      0.097569     -1.342129
  C       2.674034     -0.185363     -2.037367
  S       0.903788      0.040178     -3.878552
  C       2.524559     -0.243912     -3.386322
  H       1.560937      1.128922     -0.685176
  H       3.633498     -0.279720     -1.549710
  H       3.286562     -0.414087     -4.131617
  H      -0.641530     -3.257231     -0.290397
  H      -0.888054     -2.427358      2.289215
  H       1.503076     -1.500746      3.069621
  O       1.549154      2.399401      0.112159
  O       0.573782      0.993521      1.537907
  C       1.036572      2.141623      1.206836
  C       0.955894      3.203530      2.267469
  H       0.935132      4.194331      1.821515
  H       1.845710      3.141292      2.896508
  H       0.089741      3.063368      2.909840
  H       3.259264     -1.860829      1.076809
  H       1.901823     -2.919087     -1.029800
