39
Coordinates from ORCA-job reaction4-IEIP_ts_guess_scan_7-7_orca E -1288.400067109738
  Ir      0.609290     -0.716343      0.442018
  C       0.083905     -2.813383      0.337202
  C       0.058452     -2.354620      1.702032
  C       2.207878     -2.105235      0.898906
  C       1.388983     -2.643448     -0.162552
  C       1.391637     -1.961089      2.039292
  N      -1.050400      0.144759     -0.517369
  C      -2.319775      0.424750      0.173159
  C      -3.105860      1.573162     -0.440816
  H      -3.930396      1.830816      0.222505
  H      -3.550887      1.316048     -1.403043
  H      -2.493909      2.467141     -0.562808
  C      -3.150702     -0.851188      0.245595
  H      -2.029582      0.709546      1.185460
  H      -4.057686     -0.667240      0.819696
  H      -3.447873     -1.186554     -0.748894
  H      -2.613073     -1.661256      0.736126
  C      -0.880584      0.383585     -1.761037
  C       0.457845      0.186039     -2.253251
  H      -1.680044      0.750010     -2.398270
  C       1.538022      0.325172     -1.386288
  C       2.749713     -0.027499     -2.048762
  S       0.909020     -0.330538     -3.809439
  C       2.560254     -0.394224     -3.345602
  H       1.517761      1.264951     -0.607480
  H       3.727401      0.043215     -1.594543
  H       3.307929     -0.677543     -4.071013
  H      -0.758788     -3.199495     -0.218071
  H      -0.781867     -2.392068      2.379156
  H       1.700924     -1.546174      2.988125
  O       1.424438      2.418575      0.180200
  O       0.547912      0.956969      1.615300
  C       0.972387      2.125077      1.290999
  C       0.921353      3.151814      2.386002
  H       0.880545      4.156019      1.972843
  H       1.831415      3.075381      2.984266
  H       0.078429      2.986286      3.053153
  H       3.262122     -1.880882      0.839750
  H       1.723182     -2.881347     -1.161809
39
Coordinates from ORCA-job reaction4-IEIP_ts_guess_scan_7-7_orca E -1288.396777499701
  Ir      0.614850     -0.691470      0.430473
  C       0.121178     -2.795482      0.282086
  C       0.078430     -2.365911      1.655609
  C       2.229706     -2.066856      0.874525
  C       1.427351     -2.596339     -0.203716
  C       1.402211     -1.957618      2.010894
  N      -1.057755      0.160611     -0.521659
  C      -2.321592      0.450490      0.173719
  C      -3.115794      1.583638     -0.457777
  H      -3.936521      1.852073      0.205975
  H      -3.566480      1.305462     -1.411490
  H      -2.507732      2.476925     -0.602294
  C      -3.147447     -0.826419      0.278704
  H      -2.023843      0.756556      1.177600
  H      -4.050284     -0.633912      0.856501
  H      -3.451617     -1.182724     -0.706334
  H      -2.602889     -1.624610      0.780987
  C      -0.898537      0.368762     -1.772929
  C       0.438474      0.155782     -2.260891
  H      -1.703080      0.710519     -2.417370
  C       1.516022      0.364013     -1.403605
  C       2.727722     -0.040212     -2.037400
  S       0.891443     -0.467543     -3.776419
  C       2.540196     -0.506043     -3.302172
  H       1.502173      1.395944     -0.734122
  H       3.705563      0.069850     -1.591511
  H       3.289216     -0.842450     -4.002988
  H      -0.711143     -3.183309     -0.287456
  H      -0.766209     -2.430408      2.325165
  H       1.697694     -1.557235      2.970288
  O       1.513730      2.379214      0.262395
  O       0.513410      0.952971      1.638631
  C       0.985774      2.108255      1.346044
  C       0.902765      3.137853      2.436167
  H       0.917618      4.142272      2.021687
  H       1.773336      3.033956      3.086754
  H       0.017412      2.999546      3.052486
  H       3.281055     -1.826563      0.828636
  H       1.772963     -2.810400     -1.204453
39
Coordinates from ORCA-job reaction4-IEIP_ts_guess_scan_7-7_orca E -1288.400220060124
  Ir      0.610068     -0.712427      0.446545
  C       0.096283     -2.813984      0.330545
  C       0.061468     -2.364744      1.697997
  C       2.213281     -2.095857      0.906002
  C       1.403036     -2.633625     -0.162159
  C       1.389807     -1.963288      2.043242
  N      -1.050822      0.145481     -0.515732
  C      -2.318390      0.430575      0.174338
  C      -3.102797      1.576260     -0.446700
  H      -3.927688      1.838460      0.214374
  H      -3.546942      1.314037     -1.407992
  H      -2.489907      2.468978     -0.573245
  C      -3.150191     -0.844278      0.254037
  H      -2.026881      0.720403      1.184823
  H      -4.056519     -0.656591      0.827919
  H      -3.448420     -1.184558     -0.738462
  H      -2.612609     -1.652114      0.748371
  C      -0.882436      0.383472     -1.761555
  C       0.455852      0.188236     -2.259401
  H      -1.682848      0.753172     -2.395639
  C       1.538389      0.312906     -1.391093
  C       2.745895     -0.044405     -2.060876
  S       0.900042     -0.326880     -3.817728
  C       2.551687     -0.403265     -3.358511
  H       1.537111      1.271905     -0.620871
  H       3.725423      0.018798     -1.609586
  H       3.295858     -0.687311     -4.087145
  H      -0.741253     -3.202364     -0.230935
  H      -0.781617     -2.412041      2.370898
  H       1.691792     -1.551996      2.995967
  O       1.423347      2.405100      0.193332
  O       0.531020      0.956454      1.627145
  C       0.964992      2.120175      1.304732
  C       0.912138      3.152474      2.394045
  H       0.878963      4.154924      1.975898
  H       1.817857      3.074395      2.998607
  H       0.064067      2.994061      3.056232
  H       3.266642     -1.865911      0.853968
  H       1.743677     -2.865435     -1.160645
39
Coordinates from ORCA-job reaction4-IEIP_ts_guess_scan_7-7_orca E -1288.398530935184
  Ir      0.597100     -0.720448      0.445621
  C       0.061681     -2.819161      0.382866
  C       0.036529     -2.337563      1.739108
  C       2.187682     -2.108414      0.933394
  C       1.368099     -2.664100     -0.118191
  C       1.369684     -1.940586      2.069779
  N      -1.065875      0.126049     -0.530556
  C      -2.338322      0.399270      0.156391
  C      -3.133234      1.537926     -0.464400
  H      -3.961622      1.791187      0.195831
  H      -3.573667      1.272525     -1.426489
  H      -2.529090      2.436864     -0.589005
  C      -3.158091     -0.883553      0.233853
  H      -2.051927      0.690920      1.167753
  H      -4.067014     -0.705116      0.806642
  H      -3.451584     -1.225823     -0.759360
  H      -2.613283     -1.686532      0.728216
  C      -0.899229      0.367504     -1.775954
  C       0.441498      0.198994     -2.272939
  H      -1.702527      0.734355     -2.407831
  C       1.514886      0.311005     -1.393883
  C       2.735510      0.020459     -2.071685
  S       0.904442     -0.241787     -3.848163
  C       2.556627     -0.286269     -3.385236
  H       1.476345      1.231108     -0.580410
  H       3.710827      0.090885     -1.612285
  H       3.311525     -0.515852     -4.121996
  H      -0.781771     -3.212391     -0.166262
  H      -0.804447     -2.360617      2.415896
  H       1.679202     -1.509625      3.011342
  O       1.662714      2.349301      0.241119
  O       0.536989      0.978865      1.592260
  C       1.073395      2.108090      1.300808
  C       0.990685      3.153620      2.375149
  H       1.067745      4.151207      1.951210
  H       1.827459      3.019435      3.063433
  H       0.074700      3.061822      2.954283
  H       3.243144     -1.890651      0.872316
  H       1.702583     -2.923714     -1.111887
39
Coordinates from ORCA-job reaction4-IEIP_ts_guess_scan_7-7_orca E -1288.400301215454
  Ir      0.605052     -0.712482      0.447268
  C       0.078731     -2.812655      0.357044
  C       0.047593     -2.348837      1.719330
  C       2.200004     -2.099801      0.922405
  C       1.386023     -2.645324     -0.138723
  C       1.377860     -1.949835      2.058570
  N      -1.053887      0.142558     -0.519577
  C      -2.327370      0.411486      0.166990
  C      -3.119792      1.555940     -0.446258
  H      -3.949361      1.804672      0.214201
  H      -3.558399      1.298771     -1.411422
  H      -2.514549      2.455283     -0.562294
  C      -3.148915     -0.870898      0.232421
  H      -2.042679      0.694634      1.181287
  H      -4.058847     -0.695985      0.804707
  H      -3.440706     -1.204819     -0.764130
  H      -2.606155     -1.678467      0.721467
  C      -0.882423      0.395305     -1.762401
  C       0.454797      0.207183     -2.263674
  H      -1.683733      0.767285     -2.393773
  C       1.536771      0.306397     -1.392239
  C       2.743431     -0.038220     -2.069628
  S       0.898615     -0.264039     -3.835656
  C       2.548999     -0.362431     -3.376399
  H       1.543793      1.257407     -0.608906
  H       3.722828      0.009942     -1.616112
  H       3.292800     -0.629749     -4.111644
  H      -0.761442     -3.202514     -0.199430
  H      -0.795129     -2.384243      2.393366
  H       1.682847     -1.529437      3.006364
  O       1.498444      2.397392      0.202499
  O       0.532394      0.971154      1.613339
  C       1.001863      2.123514      1.300746
  C       0.947248      3.158008      2.387465
  H       0.949527      4.160502      1.968148
  H       1.835063      3.058137      3.014921
  H       0.078855      3.021134      3.027716
  H       3.254721     -1.876918      0.867383
  H       1.724498     -2.890861     -1.134631
39
Coordinates from ORCA-job reaction4-IEIP_ts_guess_scan_7-7_orca E -1288.400334416047
  Ir      0.609947     -0.718197      0.449370
  C       0.076665     -2.816726      0.360994
  C       0.043183     -2.352119      1.722700
  C       2.198609     -2.110564      0.931247
  C       1.385865     -2.654178     -0.131607
  C       1.373527     -1.956535      2.064836
  N      -1.048844      0.141377     -0.520347
  C      -2.320973      0.413586      0.167763
  C      -3.112287      1.559118     -0.444869
  H      -3.940231      1.809662      0.216904
  H      -3.553130      1.302218     -1.409091
  H      -2.505726      2.457359     -0.562398
  C      -3.145906     -0.866583      0.235638
  H      -2.034316      0.697223      1.181478
  H      -4.054988     -0.688453      0.808323
  H      -3.439359     -1.201122     -0.760216
  H      -2.605197     -1.674884      0.725461
  C      -0.879799      0.392920     -1.763884
  C       0.455834      0.204981     -2.266793
  H      -1.681970      0.765814     -2.393675
  C       1.535977      0.299635     -1.393586
  C       2.744384     -0.034078     -2.073284
  S       0.900219     -0.260385     -3.840143
  C       2.552011     -0.345373     -3.383725
  H       1.542670      1.258161     -0.615415
  H       3.723534      0.016108     -1.619458
  H       3.297430     -0.600822     -4.121519
  H      -0.763133     -3.204321     -0.197559
  H      -0.801534     -2.384196      2.394403
  H       1.677243     -1.536077      3.013008
  O       1.467371      2.401527      0.188976
  O       0.537870      0.965008      1.614624
  C       0.989034      2.122091      1.294455
  C       0.941814      3.156251      2.381780
  H       0.926727      4.158713      1.962637
  H       1.840830      3.065536      2.994480
  H       0.085527      3.010320      3.036190
  H       3.254316     -1.891739      0.879312
  H       1.726176     -2.902068     -1.126270
39
Coordinates from ORCA-job reaction4-IEIP_ts_guess_scan_7-7_orca E -1288.400360137551
  Ir      0.611442     -0.720898      0.451010
  C       0.075794     -2.818435      0.364367
  C       0.039894     -2.353238      1.725571
  C       2.197293     -2.114534      0.938008
  C       1.386275     -2.657850     -0.126040
  C       1.369630     -1.958387      2.069667
  N      -1.045787      0.138768     -0.519787
  C      -2.317222      0.411584      0.169569
  C      -3.107464      1.559428     -0.440154
  H      -3.934393      1.809722      0.222957
  H      -3.549670      1.305086     -1.404429
  H      -2.499866      2.457130     -0.556448
  C      -3.144930     -0.866939      0.235782
  H      -2.029693      0.693255      1.183639
  H      -4.053837     -0.687472      0.808339
  H      -3.438820     -1.199685     -0.760544
  H      -2.606417     -1.677018      0.724880
  C      -0.877956      0.393011     -1.762987
  C       0.456587      0.207529     -2.268985
  H      -1.680980      0.768559     -2.390123
  C       1.536795      0.291564     -1.395241
  C       2.745236     -0.036114     -2.077726
  S       0.901985     -0.229978     -3.849738
  C       2.552159     -0.334671     -3.391214
  H       1.545845      1.252398     -0.616159
  H       3.724064      0.003832     -1.622215
  H       3.296898     -0.587285     -4.130661
  H      -0.763205     -3.205387     -0.195802
  H      -0.806319     -2.383556      2.395454
  H       1.671840     -1.537237      3.018019
  O       1.465379      2.397962      0.184596
  O       0.540041      0.962610      1.614340
  C       0.988632      2.119312      1.291521
  C       0.936173      3.157905      2.374403
  H       0.916451      4.158632      1.951343
  H       1.835460      3.073722      2.987617
  H       0.080368      3.010507      3.029146
  H       3.253475     -1.897477      0.888527
  H       1.728213     -2.907164     -1.119765
39
Coordinates from ORCA-job reaction4-IEIP_ts_guess_scan_7-7_orca E -1288.400383500802
  Ir      0.609229     -0.721128      0.453701
  C       0.074747     -2.818391      0.367189
  C       0.036079     -2.353176      1.728238
  C       2.194989     -2.113659      0.944298
  C       1.386237     -2.657507     -0.121073
  C       1.364809     -1.957439      2.074341
  N      -1.045402      0.136296     -0.518098
  C      -2.317506      0.407424      0.170794
  C      -3.106876      1.557501     -0.436069
  H      -3.934129      1.806019      0.227317
  H      -3.548576      1.306307     -1.401385
  H      -2.498918      2.455382     -0.549248
  C      -3.146262     -0.870642      0.232341
  H      -2.031110      0.686157      1.185945
  H      -4.056060     -0.691879      0.803686
  H      -3.438639     -1.200573     -0.765365
  H      -2.609420     -1.682536      0.720304
  C      -0.877191      0.393192     -1.760797
  C       0.456438      0.207977     -2.269577
  H      -1.681067      0.768900     -2.386716
  C       1.537950      0.281591     -1.396173
  C       2.745917     -0.039641     -2.082285
  S       0.900842     -0.213867     -3.854751
  C       2.551768     -0.320785     -3.399571
  H       1.549086      1.242467     -0.614340
  H       3.724929     -0.006811     -1.626707
  H       3.295880     -0.564805     -4.142534
  H      -0.762999     -3.205706     -0.194651
  H      -0.811414     -2.383304      2.396477
  H       1.665128     -1.535684      3.023039
  O       1.482015      2.388465      0.187028
  O       0.538928      0.964361      1.615349
  C       0.994602      2.117404      1.291495
  C       0.938348      3.161919      2.368591
  H       0.925566      4.160532      1.940380
  H       1.832917      3.077357      2.988635
  H       0.077297      3.021132      3.017898
  H       3.251268     -1.896563      0.897133
  H       1.729970     -2.907098     -1.114100
39
Coordinates from ORCA-job reaction4-IEIP_ts_guess_scan_7-7_orca E -1288.400383068254
  Ir      0.609601     -0.722223      0.454676
  C       0.073559     -2.819042      0.369687
  C       0.033798     -2.352710      1.730389
  C       2.193988     -2.115738      0.948727
  C       1.385881     -2.659878     -0.117070
  C       1.362512     -1.957732      2.077561
  N      -1.045407      0.135827     -0.518274
  C      -2.318287      0.404174      0.170473
  C      -3.107790      1.556063     -0.433064
  H      -3.935536      1.801961      0.230700
  H      -3.548819      1.307964     -1.399471
  H      -2.500171      2.454589     -0.542917
  C      -3.146520     -0.874433      0.226736
  H      -2.033091      0.679635      1.186801
  H      -4.057107     -0.697942      0.797527
  H      -3.437518     -1.201088     -0.772453
  H      -2.609957     -1.687870      0.712544
  C      -0.877728      0.394821     -1.760777
  C       0.455155      0.211292     -2.270618
  H      -1.682573      0.769654     -2.385933
  C       1.536253      0.280121     -1.396438
  C       2.744333     -0.039858     -2.082214
  S       0.900483     -0.204237     -3.857272
  C       2.550659     -0.315122     -3.400971
  H       1.548053      1.241725     -0.614304
  H       3.722981     -0.010498     -1.625696
  H       3.295144     -0.556476     -4.144424
  H      -0.763783     -3.206152     -0.192938
  H      -0.814466     -2.381455      2.397699
  H       1.662209     -1.535334      3.026182
  O       1.486442      2.389364      0.185150
  O       0.542420      0.966822      1.615027
  C       0.997927      2.119443      1.289538
  C       0.943399      3.165056      2.365624
  H       0.930263      4.163207      1.936388
  H       1.838825      3.080939      2.984483
  H       0.083218      3.025061      3.016235
  H       3.250579     -1.899920      0.902892
  H       1.730442     -2.910820     -1.109467
39
Coordinates from ORCA-job reaction4-IEIP_ts_guess_scan_7-7_orca E -1288.400385157120
  Ir      0.610100     -0.722686      0.455066
  C       0.074998     -2.819514      0.368370
  C       0.032976     -2.353813      1.729282
  C       2.194391     -2.115812      0.951227
  C       1.388089     -2.659715     -0.116069
  C       1.361043     -1.958551      2.078736
  N      -1.044802      0.135547     -0.517890
  C      -2.317288      0.404457      0.171415
  C      -3.105835      1.557744     -0.430826
  H      -3.933011      1.803955      0.233522
  H      -3.547520      1.310946     -1.397260
  H      -2.497267      2.455667     -0.540230
  C      -3.146596     -0.873497      0.226474
  H      -2.031666      0.678722      1.187964
  H      -4.056992     -0.696860      0.797541
  H      -3.437974     -1.198842     -0.773037
  H      -2.610663     -1.687952      0.711275
  C      -0.877928      0.393763     -1.760685
  C       0.454521      0.210358     -2.270960
  H      -1.683270      0.768038     -2.385549
  C       1.535782      0.278906     -1.396940
  C       2.743841     -0.039673     -2.083080
  S       0.899681     -0.205436     -3.857719
  C       2.549847     -0.315058     -3.401851
  H       1.547089      1.240953     -0.614980
  H       3.722661     -0.009504     -1.627007
  H       3.294350     -0.555269     -4.145671
  H      -0.761206     -3.206743     -0.195841
  H      -0.816318     -2.383132      2.395262
  H       1.659139     -1.536409      3.027975
  O       1.485312      2.388953      0.183944
  O       0.542839      0.965990      1.614721
  C       0.997938      2.118631      1.288779
  C       0.941721      3.165020      2.364020
  H       0.926219      4.162766      1.933896
  H       1.837701      3.083366      2.982385
  H       0.082220      3.023721      3.015229
  H       3.251008     -1.899771      0.907313
  H       1.734244     -2.910076     -1.108062
