39
Coordinates from ORCA-job reaction4-IEIP_ts_guess_scan_5-5_orca E -1288.399025790118
  Ir      0.597169     -0.713134      0.435985
  C       0.049725     -2.799583      0.334862
  C       0.120171     -2.348306      1.702071
  C       2.211133     -2.118940      0.761035
  C       1.318034     -2.635574     -0.251514
  C       1.482061     -1.978323      1.956090
  N      -1.053179      0.166120     -0.524788
  C      -2.321608      0.482811      0.150061
  C      -3.129583      1.563506     -0.550415
  H      -3.955983      1.858735      0.094714
  H      -3.574182      1.223723     -1.487202
  H      -2.535657      2.456960     -0.745306
  C      -3.132225     -0.793883      0.337864
  H      -2.026399      0.855324      1.132279
  H      -4.043197     -0.569825      0.890806
  H      -3.422193     -1.224033     -0.621670
  H      -2.586170     -1.546071      0.905375
  C      -0.860162      0.376938     -1.767898
  C       0.490433      0.155196     -2.229106
  H      -1.641873      0.737040     -2.430464
  C       1.576347      0.441400     -1.407896
  C       2.790978      0.037840     -2.035129
  S       0.941789     -0.552187     -3.711897
  C       2.600322     -0.506286     -3.266604
  H       1.507936      1.342488     -0.635192
  H       3.769721      0.197134     -1.606229
  H       3.348317     -0.863922     -3.958112
  H      -0.834691     -3.167022     -0.165606
  H      -0.673649     -2.382711      2.433569
  H       1.860916     -1.579275      2.886102
  O       1.325238      2.462796      0.232189
  O       0.539054      0.925266      1.643469
  C       0.919207      2.120577      1.341487
  C       0.868883      3.100621      2.479832
  H       0.826982      4.120673      2.107857
  H       1.777757      2.999631      3.076333
  H       0.026276      2.908973      3.140909
  H       3.257871     -1.890810      0.626024
  H       1.583802     -2.864676     -1.273147
39
Coordinates from ORCA-job reaction4-IEIP_ts_guess_scan_5-5_orca E -1288.397208818970
  Ir      0.601385     -0.696388      0.426436
  C       0.073846     -2.788424      0.300835
  C       0.131975     -2.352956      1.673448
  C       2.226001     -2.092022      0.747565
  C       1.343997     -2.606053     -0.275883
  C       1.488183     -1.971429      1.939503
  N      -1.060492      0.175321     -0.529522
  C      -2.324881      0.497698      0.148950
  C      -3.139540      1.566014     -0.562571
  H      -3.963433      1.868272      0.082493
  H      -3.587798      1.211429     -1.492125
  H      -2.549075      2.458138     -0.773464
  C      -3.130114     -0.778800      0.359476
  H      -2.024498      0.884595      1.124013
  H      -4.038121     -0.550120      0.915376
  H      -3.424983     -1.222908     -0.592161
  H      -2.577633     -1.521362      0.933482
  C      -0.876222      0.365797     -1.778118
  C       0.473780      0.137007     -2.237083
  H      -1.662337      0.709093     -2.444355
  C       1.556285      0.464799     -1.425979
  C       2.772082      0.031909     -2.032772
  S       0.927912     -0.638110     -3.684288
  C       2.584660     -0.573390     -3.235606
  H       1.490933      1.434558     -0.728397
  H       3.750429      0.218963     -1.614392
  H       3.334784     -0.961040     -3.908273
  H      -0.803868     -3.159053     -0.208957
  H      -0.665499     -2.404234      2.399883
  H       1.857509     -1.579291      2.876245
  O       1.436481      2.425917      0.298764
  O       0.513570      0.924064      1.655652
  C       0.949356      2.105104      1.382255
  C       0.858388      3.090598      2.513156
  H       0.873744      4.110152      2.137650
  H       1.723482      2.962289      3.166716
  H      -0.030608      2.928828      3.119039
  H       3.271495     -1.853472      0.621805
  H       1.618196     -2.822304     -1.298059
39
Coordinates from ORCA-job reaction4-IEIP_ts_guess_scan_5-5_orca E -1288.399143149134
  Ir      0.601329     -0.713289      0.439755
  C       0.055362     -2.802371      0.335657
  C       0.118791     -2.354871      1.704108
  C       2.214014     -2.119736      0.772940
  C       1.326541     -2.636141     -0.244513
  C       1.478291     -1.981917      1.964634
  N      -1.050596      0.167315     -0.522334
  C      -2.317671      0.485036      0.152674
  C      -3.123528      1.566121     -0.549521
  H      -3.950651      1.862708      0.094029
  H      -3.566690      1.225966     -1.486895
  H      -2.528320      2.458781     -0.744237
  C      -3.128672     -0.791368      0.340230
  H      -2.021880      0.857073      1.134882
  H      -4.039185     -0.567307      0.893896
  H      -3.419367     -1.220871     -0.619364
  H      -2.582138     -1.543933      0.906889
  C      -0.858852      0.383810     -1.766754
  C       0.490963      0.163253     -2.235880
  H      -1.641811      0.749987     -2.424460
  C       1.580909      0.429660     -1.411116
  C       2.790191      0.023710     -2.049721
  S       0.932141     -0.536762     -3.724866
  C       2.592211     -0.506437     -3.285307
  H       1.532337      1.351467     -0.648092
  H       3.771989      0.175139     -1.625031
  H       3.335578     -0.860369     -3.983559
  H      -0.826073     -3.170509     -0.169504
  H      -0.678023     -2.392897      2.432045
  H       1.852016     -1.584139      2.897238
  O       1.316246      2.452066      0.236668
  O       0.529529      0.923570      1.652296
  C       0.913248      2.116034      1.349754
  C       0.855807      3.103425      2.481074
  H       0.811783      4.120966      2.102380
  H       1.762938      3.009332      3.081243
  H       0.011514      2.913090      3.140217
  H       3.261407     -1.891561      0.644061
  H       1.597689     -2.864838     -1.264777
39
Coordinates from ORCA-job reaction4-IEIP_ts_guess_scan_5-5_orca E -1288.397551794372
  Ir      0.586087     -0.718851      0.444740
  C       0.027266     -2.805844      0.385995
  C       0.093909     -2.329579      1.744189
  C       2.190032     -2.127048      0.807656
  C       1.298990     -2.660150     -0.197804
  C       1.455488     -1.959257      1.996161
  N      -1.063917      0.145977     -0.536003
  C      -2.335690      0.456476      0.134820
  C      -3.148765      1.530648     -0.569828
  H      -3.979094      1.821701      0.072146
  H      -3.588181      1.186071     -1.507305
  H      -2.560088      2.427592     -0.764659
  C      -3.138189     -0.825301      0.322923
  H      -2.045215      0.832148      1.117188
  H      -4.051403     -0.606836      0.874417
  H      -3.423853     -1.258418     -0.636553
  H      -2.587419     -1.573000      0.891812
  C      -0.873965      0.362598     -1.780288
  C       0.477985      0.169537     -2.252305
  H      -1.659853      0.728022     -2.434688
  C       1.560438      0.415904     -1.413916
  C       2.780623      0.078720     -2.070763
  S       0.935493     -0.443895     -3.773688
  C       2.595677     -0.387954     -3.334153
  H       1.478085      1.274325     -0.587701
  H       3.757903      0.227074     -1.634562
  H       3.347410     -0.686362     -4.049263
  H      -0.856620     -3.179233     -0.110972
  H      -0.702915     -2.346923      2.472899
  H       1.831891     -1.543638      2.919876
  O       1.556188      2.403375      0.284057
  O       0.526061      0.945773      1.624638
  C       1.011373      2.108159      1.348154
  C       0.925827      3.105499      2.468685
  H       0.994994      4.120452      2.086919
  H       1.763763      2.947274      3.150501
  H       0.012091      2.984903      3.046742
  H       3.238815     -1.908164      0.673651
  H       1.568148     -2.912582     -1.212978
39
Coordinates from ORCA-job reaction4-IEIP_ts_guess_scan_5-5_orca E -1288.399212054970
  Ir      0.594723     -0.709710      0.442273
  C       0.046788     -2.798911      0.354779
  C       0.107970     -2.341015      1.719515
  C       2.205053     -2.114626      0.790103
  C       1.319109     -2.638419     -0.224645
  C       1.466913     -1.966593      1.979218
  N      -1.054701      0.163293     -0.526030
  C      -2.326743      0.469520      0.146096
  C      -3.138308      1.549496     -0.551397
  H      -3.969092      1.836415      0.091838
  H      -3.576974      1.212152     -1.491863
  H      -2.548847      2.447454     -0.739054
  C      -3.130694     -0.812856      0.323859
  H      -2.036789      0.837610      1.131531
  H      -4.044249     -0.597682      0.876096
  H      -3.415848     -1.238532     -0.639095
  H      -2.581185     -1.565273      0.887666
  C      -0.861325      0.388409     -1.768709
  C       0.487477      0.175569     -2.242626
  H      -1.645786      0.755401     -2.423936
  C       1.578860      0.420733     -1.413854
  C       2.786643      0.024776     -2.060676
  S       0.926779     -0.482247     -3.750798
  C       2.586627     -0.474144     -3.308952
  H       1.536252      1.327159     -0.631495
  H       3.768759      0.159217     -1.630937
  H       3.328476     -0.815952     -4.014791
  H      -0.834038     -3.170233     -0.149079
  H      -0.690208     -2.372611      2.446229
  H       1.839171     -1.561501      2.909260
  O       1.406640      2.439782      0.255121
  O       0.521384      0.937319      1.642491
  C       0.948184      2.117897      1.351311
  C       0.885177      3.107345      2.480295
  H       0.887252      4.125510      2.100828
  H       1.767894      2.984048      3.110815
  H       0.013196      2.944913      3.110203
  H       3.253018     -1.888755      0.661636
  H       1.591814     -2.875766     -1.242488
39
Coordinates from ORCA-job reaction4-IEIP_ts_guess_scan_5-5_orca E -1288.399232154498
  Ir      0.600505     -0.716677      0.443020
  C       0.044665     -2.804114      0.356017
  C       0.104997     -2.346376      1.720643
  C       2.204661     -2.127985      0.794904
  C       1.318549     -2.648581     -0.221328
  C       1.464709     -1.976537      1.982484
  N      -1.049375      0.162353     -0.526506
  C      -2.319563      0.473036      0.147342
  C      -3.128302      1.556255     -0.548378
  H      -3.957062      1.845763      0.096293
  H      -3.569650      1.220991     -1.488318
  H      -2.536020      2.452258     -0.736424
  C      -3.128508     -0.806155      0.325717
  H      -2.027034      0.839856      1.132538
  H      -4.040722     -0.587331      0.878740
  H      -3.416201     -1.230612     -0.637013
  H      -2.581620     -1.560773      0.888968
  C      -0.859319      0.382410     -1.770683
  C       0.488428      0.170271     -2.243922
  H      -1.644904      0.747203     -2.425846
  C       1.576183      0.420949     -1.413184
  C       2.787236      0.034575     -2.059418
  S       0.931015     -0.500032     -3.745280
  C       2.591685     -0.464707     -3.308563
  H       1.528551      1.340564     -0.644064
  H       3.768258      0.180664     -1.630995
  H       3.336689     -0.797143     -4.015538
  H      -0.836536     -3.172344     -0.149436
  H      -0.694607     -2.374973      2.445906
  H       1.836770     -1.572536      2.913076
  O       1.353995      2.451720      0.236663
  O       0.530901      0.930945      1.644017
  C       0.931406      2.118365      1.344175
  C       0.880208      3.105229      2.475856
  H       0.853509      4.123781      2.098361
  H       1.781514      2.997239      3.082424
  H       0.028402      2.925866      3.128392
  H       3.253852     -1.906680      0.668634
  H       1.592108     -2.887547     -1.238536
39
Coordinates from ORCA-job reaction4-IEIP_ts_guess_scan_5-5_orca E -1288.399259731336
  Ir      0.599993     -0.715732      0.443446
  C       0.046331     -2.803356      0.355857
  C       0.104858     -2.345872      1.720525
  C       2.205229     -2.125146      0.796649
  C       1.320635     -2.646484     -0.220415
  C       1.463824     -1.974553      1.983551
  N      -1.049239      0.160970     -0.526148
  C      -2.319377      0.470924      0.148242
  C      -3.127483      1.555977     -0.545360
  H      -3.955914      1.844861      0.100017
  H      -3.569274      1.222764     -1.485817
  H      -2.534598      2.451899     -0.731875
  C      -3.129345     -0.807997      0.324204
  H      -2.026776      0.835805      1.134129
  H      -4.041571     -0.589427      0.877306
  H      -3.417055     -1.230598     -0.639338
  H      -2.583259     -1.564013      0.886333
  C      -0.859876      0.382343     -1.770160
  C       0.487633      0.172657     -2.245393
  H      -1.646244      0.747837     -2.424005
  C       1.575990      0.419117     -1.414290
  C       2.786645      0.030848     -2.060002
  S       0.930994     -0.479862     -3.754111
  C       2.590201     -0.466334     -3.309943
  H       1.529069      1.335924     -0.641324
  H       3.767521      0.168132     -1.628368
  H       3.334391     -0.803498     -4.015553
  H      -0.834004     -3.172329     -0.150565
  H      -0.695476     -2.375135      2.444937
  H       1.834558     -1.570142      2.914498
  O       1.360590      2.449707      0.237266
  O       0.529777      0.931692      1.643177
  C       0.932767      2.118073      1.343444
  C       0.879278      3.106482      2.473722
  H       0.855185      4.124620      2.094959
  H       1.778536      2.997965      3.083256
  H       0.025162      2.929045      3.123767
  H       3.254368     -1.902905      0.671530
  H       1.595325     -2.885068     -1.237409
39
Coordinates from ORCA-job reaction4-IEIP_ts_guess_scan_5-5_orca E -1288.399274870348
  Ir      0.598301     -0.714724      0.446429
  C       0.047048     -2.802584      0.357182
  C       0.102486     -2.345681      1.722103
  C       2.204465     -2.122249      0.802142
  C       1.322370     -2.644215     -0.216711
  C       1.460453     -1.972858      1.987704
  N      -1.049135      0.159726     -0.524524
  C      -2.319953      0.468249      0.149261
  C      -3.126773      1.555444     -0.542550
  H      -3.955592      1.843330      0.102780
  H      -3.567949      1.224714     -1.484166
  H      -2.533104      2.451384     -0.726481
  C      -3.130689     -0.810772      0.321051
  H      -2.028437      0.830575      1.136373
  H      -4.043558     -0.593181      0.873471
  H      -3.417279     -1.230900     -0.643907
  H      -2.585668     -1.568459      0.882026
  C      -0.859715      0.382404     -1.768400
  C       0.487061      0.172479     -2.246269
  H      -1.647006      0.747391     -2.421427
  C       1.577217      0.411666     -1.414915
  C       2.786760      0.026881     -2.064692
  S       0.928087     -0.471403     -3.759235
  C       2.588300     -0.458541     -3.318967
  H       1.532062      1.325443     -0.637398
  H       3.768270      0.159530     -1.633130
  H       3.331266     -0.789919     -4.028605
  H      -0.831912     -3.172241     -0.151148
  H      -0.699276     -2.375773      2.444882
  H       1.828959     -1.568228      2.919451
  O       1.376019      2.441395      0.240735
  O       0.527248      0.932902      1.644811
  C       0.937803      2.116211      1.344839
  C       0.880149      3.109256      2.470958
  H       0.863196      4.126038      2.088216
  H       1.774486      2.999247      3.087444
  H       0.020563      2.937917      3.115402
  H       3.253665     -1.899033      0.679268
  H       1.599184     -2.882230     -1.233263
39
Coordinates from ORCA-job reaction4-IEIP_ts_guess_scan_5-5_orca E -1288.399285801362
  Ir      0.599014     -0.715831      0.448428
  C       0.046687     -2.803393      0.359164
  C       0.099784     -2.346188      1.724025
  C       2.203773     -2.124177      0.807929
  C       1.323241     -2.646053     -0.212365
  C       1.457391     -1.973852      1.991960
  N      -1.048055      0.158685     -0.524167
  C      -2.319325      0.465516      0.149810
  C      -3.124910      1.556063     -0.538294
  H      -3.953691      1.842323      0.107814
  H      -3.566095      1.229248     -1.481252
  H      -2.530284      2.452067     -0.718733
  C      -3.131138     -0.813580      0.315889
  H      -2.028534      0.823817      1.138579
  H      -4.044398     -0.597472      0.868246
  H      -3.417055     -1.229793     -0.650963
  H      -2.587195     -1.573871      0.874408
  C      -0.859824      0.382058     -1.768263
  C       0.486091      0.173956     -2.248083
  H      -1.648494      0.745856     -2.420270
  C       1.576063      0.408371     -1.415219
  C       2.785739      0.026410     -2.065918
  S       0.927551     -0.462292     -3.763964
  C       2.587456     -0.452356     -3.322937
  H       1.530819      1.323327     -0.637969
  H       3.767098      0.156135     -1.633185
  H       3.330547     -0.780266     -4.034046
  H      -0.831446     -3.172751     -0.150838
  H      -0.703445     -2.375406      2.445206
  H       1.824352     -1.569014      2.924236
  O       1.373816      2.441362      0.237338
  O       0.529946      0.934037      1.645746
  C       0.938024      2.117279      1.342899
  C       0.882705      3.112228      2.467430
  H       0.862807      4.128320      2.083036
  H       1.779438      3.004664      3.080864
  H       0.025703      2.940571      3.115216
  H       3.253449     -1.902026      0.687263
  H       1.601764     -2.884784     -1.228279
39
Coordinates from ORCA-job reaction4-IEIP_ts_guess_scan_5-5_orca E -1288.399297461084
  Ir      0.600483     -0.717884      0.452286
  C       0.048027     -2.805191      0.360821
  C       0.094709     -2.348201      1.725928
  C       2.203330     -2.126493      0.819824
  C       1.327384     -2.648204     -0.204546
  C       1.450995     -1.975870      2.000168
  N      -1.045121      0.156130     -0.522672
  C      -2.316430      0.461371      0.152469
  C      -3.118265      1.559805     -0.527645
  H      -3.945977      1.844298      0.120619
  H      -3.560730      1.241408     -1.472838
  H      -2.520275      2.454784     -0.701725
  C      -3.132106     -0.816683      0.307563
  H      -2.025940      0.811126      1.144380
  H      -4.045508     -0.602367      0.860413
  H      -3.417861     -1.224598     -0.662866
  H      -2.590993     -1.582910      0.860662
  C      -0.859762      0.379715     -1.767365
  C       0.484275      0.174744     -2.251188
  H      -1.651219      0.741432     -2.417146
  C       1.574520      0.400597     -1.416373
  C       2.784015      0.024719     -2.069918
  S       0.925680     -0.446862     -3.772876
  C       2.585117     -0.442659     -3.331458
  H       1.529190      1.317829     -0.639524
  H       3.765473      0.149636     -1.636074
  H       3.327954     -0.764229     -4.045726
  H      -0.827525     -3.174503     -0.153622
  H      -0.712132     -2.376860      2.443084
  H       1.813587     -1.570923      2.934119
  O       1.369324      2.439449      0.230663
  O       0.533831      0.934266      1.646811
  C       0.938558      2.117050      1.339030
  C       0.882191      3.116798      2.459150
  H       0.854911      4.131020      2.070320
  H       1.782283      3.017001      3.068951
  H       0.029040      2.943077      3.111429
  H       3.253847     -1.905422      0.704736
  H       1.610490     -2.887207     -1.219123
39
Coordinates from ORCA-job reaction4-IEIP_ts_guess_scan_5-5_orca E -1288.399298101325
  Ir      0.600336     -0.717608      0.453297
  C       0.049488     -2.805371      0.360614
  C       0.093101     -2.348293      1.725842
  C       2.203470     -2.125139      0.824088
  C       1.329876     -2.647455     -0.202010
  C       1.448576     -1.975114      2.002882
  N      -1.045070      0.155380     -0.522168
  C      -2.316615      0.459574      0.153134
  C      -3.117124      1.560636     -0.524329
  H      -3.944737      1.844334      0.124405
  H      -3.559599      1.245097     -1.470461
  H      -2.517994      2.455310     -0.695966
  C      -3.133185     -0.818463      0.303816
  H      -2.026621      0.806154      1.146288
  H      -4.046770     -0.605423      0.856873
  H      -3.418642     -1.223200     -0.668031
  H      -2.592719     -1.586757      0.854679
  C      -0.860379      0.379019     -1.766997
  C       0.483277      0.174933     -2.251736
  H      -1.652644      0.739931     -2.416259
  C       1.573929      0.398831     -1.416813
  C       2.783058      0.023457     -2.071041
  S       0.924332     -0.443709     -3.774774
  C       2.583657     -0.441116     -3.333622
  H       1.529108      1.316268     -0.639736
  H       3.764697      0.146940     -1.637202
  H       3.326217     -0.761644     -4.048655
  H      -0.824658     -3.175459     -0.155648
  H      -0.715217     -2.377428      2.441318
  H       1.808987     -1.569940      2.937582
  O       1.369311      2.438921      0.229132
  O       0.533424      0.935321      1.646686
  C       0.936854      2.118124      1.337322
  C       0.884415      3.118013      2.457503
  H       0.857326      4.132191      2.068551
  H       1.785938      3.017384      3.065069
  H       0.032696      2.945271      3.111880
  H       3.254134     -1.903608      0.711279
  H       1.615137     -2.886173     -1.216054
39
Coordinates from ORCA-job reaction4-IEIP_ts_guess_scan_5-5_orca E -1288.399298712478
  Ir      0.600423     -0.717338      0.453142
  C       0.050385     -2.805485      0.360039
  C       0.092824     -2.348122      1.725282
  C       2.203817     -2.124375      0.825214
  C       1.331130     -2.647117     -0.201464
  C       1.447990     -1.974625      2.003422
  N      -1.045430      0.155414     -0.521820
  C      -2.317076      0.458860      0.153636
  C      -3.116936      1.561251     -0.522426
  H      -3.944610      1.844411      0.126461
  H      -3.559230      1.247188     -1.469128
  H      -2.517262      2.455826     -0.692662
  C      -3.133855     -0.819351      0.301827
  H      -2.027362      0.803648      1.147470
  H      -4.047440     -0.607354      0.855287
  H      -3.419318     -1.222183     -0.670811
  H      -2.593382     -1.588781      0.851120
  C      -0.860914      0.379232     -1.766663
  C       0.482748      0.175120     -2.251496
  H      -1.653345      0.740078     -2.415776
  C       1.573816      0.399122     -1.417061
  C       2.782526      0.022732     -2.071472
  S       0.923191     -0.444467     -3.774449
  C       2.582564     -0.442267     -3.333804
  H       1.529669      1.316160     -0.639687
  H       3.764396      0.146068     -1.638103
  H       3.324803     -0.763513     -4.048851
  H      -0.823182     -3.176114     -0.156812
  H      -0.716016     -2.377520      2.440161
  H       1.807534     -1.569315      2.938398
  O       1.372526      2.438942      0.229499
  O       0.533685      0.936186      1.646159
  C       0.938952      2.118586      1.337298
  C       0.884661      3.118836      2.457068
  H       0.857744      4.132857      2.067671
  H       1.785458      3.018789      3.065798
  H       0.032154      2.946058      3.110402
  H       3.254506     -1.902573      0.713190
  H       1.617225     -2.885676     -1.215318
