39
Coordinates from ORCA-job reaction4-IEIP_ts_guess_scan_7-5_orca E -1288.400063837960
  Ir      0.607380     -0.710044      0.429233
  C       0.062803     -2.802610      0.345140
  C       0.101281     -2.343956      1.709349
  C       2.213286     -2.112234      0.811187
  C       1.344348     -2.641856     -0.214821
  C       1.453007     -1.961833      1.987424
  N      -1.052637      0.156885     -0.527199
  C      -2.320561      0.453366      0.158014
  C      -3.121550      1.566315     -0.499326
  H      -3.945903      1.841982      0.156963
  H      -3.568412      1.265556     -1.448162
  H      -2.520846      2.461913     -0.660120
  C      -3.138599     -0.825787      0.291714
  H      -2.025921      0.783541      1.155279
  H      -4.048597     -0.620980      0.853762
  H      -3.430298     -1.213519     -0.685189
  H      -2.595627     -1.604178      0.825636
  C      -0.873126      0.385731     -1.770527
  C       0.471317      0.175940     -2.245167
  H      -1.663529      0.751803     -2.419009
  C       1.546440      0.357829     -1.378476
  C       2.764245     -0.016493     -2.018854
  S       0.934362     -0.409426     -3.772694
  C       2.584373     -0.443278     -3.297730
  H       1.507796      1.287122     -0.617104
  H       3.738512      0.081414     -1.562279
  H       3.336949     -0.755115     -4.006199
  H      -0.808098     -3.178466     -0.172460
  H      -0.708732     -2.374278      2.422779
  H       1.808990     -1.551710      2.921709
  O       1.375078      2.447569      0.205431
  O       0.539328      0.945006      1.623658
  C       0.943721      2.127106      1.314220
  C       0.892055      3.127723      2.433970
  H       0.866051      4.141813      2.044700
  H       1.793286      3.026192      3.041809
  H       0.039889      2.955949      3.088055
  H       3.264394     -1.890836      0.702878
  H       1.632919     -2.884968     -1.226854
39
Coordinates from ORCA-job reaction4-IEIP_ts_guess_scan_7-5_orca E -1288.397624359563
  Ir      0.612572     -0.688671      0.418873
  C       0.094944     -2.788262      0.298477
  C       0.117105     -2.353088      1.670346
  C       2.232562     -2.078102      0.792716
  C       1.378619     -2.602081     -0.248553
  C       1.460869     -1.956585      1.965028
  N      -1.059573      0.169612     -0.531238
  C      -2.322358      0.474983      0.158265
  C      -3.130431      1.573877     -0.513789
  H      -3.951371      1.859308      0.142588
  H      -3.582233      1.254755     -1.454264
  H      -2.533085      2.467906     -0.694615
  C      -3.135582     -0.803850      0.320678
  H      -2.020955      0.823494      1.147251
  H      -4.041705     -0.591862      0.886288
  H      -3.433793     -1.209339     -0.646996
  H      -2.585907     -1.571232      0.863680
  C      -0.890143      0.371083     -1.781457
  C       0.453103      0.148983     -2.252792
  H      -1.685348      0.715789     -2.435700
  C       1.525708      0.389073     -1.396245
  C       2.743763     -0.024941     -2.013100
  S       0.917102     -0.526453     -3.741848
  C       2.565431     -0.535392     -3.260916
  H       1.492449      1.398077     -0.728899
  H       3.718430      0.108909     -1.566714
  H       3.319274     -0.889515     -3.947721
  H      -0.766847     -3.167078     -0.232029
  H      -0.697662     -2.406677      2.376863
  H       1.804033     -1.557398      2.908780
  O       1.473418      2.408658      0.280645
  O       0.508611      0.941546      1.641998
  C       0.964037      2.110121      1.362980
  C       0.875361      3.115007      2.476363
  H       0.904822      4.128436      2.085489
  H       1.734215      2.987118      3.138143
  H      -0.020100      2.971468      3.077106
  H       3.281761     -1.842652      0.696872
  H       1.678275     -2.825833     -1.261811
39
Coordinates from ORCA-job reaction4-IEIP_ts_guess_scan_7-5_orca E -1288.400210337362
  Ir      0.609510     -0.707844      0.433854
  C       0.072204     -2.804364      0.341190
  C       0.101192     -2.353088      1.707678
  C       2.217346     -2.107130      0.821894
  C       1.356584     -2.636340     -0.211039
  C       1.448872     -1.964761      1.994365
  N      -1.051554      0.157648     -0.524521
  C      -2.317820      0.457733      0.160349
  C      -3.116542      1.569584     -0.501519
  H      -3.941446      1.848529      0.152667
  H      -3.562203      1.266132     -1.450096
  H      -2.514453      2.463860     -0.664555
  C      -3.136808     -0.820339      0.297610
  H      -2.022178      0.790192      1.156550
  H      -4.046081     -0.613571      0.860065
  H      -3.429687     -1.209950     -0.678188
  H      -2.593621     -1.597897      0.832645
  C      -0.873512      0.387419     -1.769753
  C       0.470477      0.178781     -2.250987
  H      -1.664946      0.757675     -2.414536
  C       1.548661      0.344699     -1.382777
  C       2.762059     -0.029981     -2.033979
  S       0.924526     -0.403227     -3.782079
  C       2.576007     -0.447421     -3.314243
  H       1.528594      1.292779     -0.630470
  H       3.739015      0.062590     -1.582128
  H       3.324620     -0.756676     -4.027918
  H      -0.794120     -3.181966     -0.182775
  H      -0.712348     -2.390959      2.416587
  H       1.797593     -1.557221      2.932487
  O       1.372265      2.433928      0.214607
  O       0.525749      0.943526      1.634254
  C       0.937851      2.121613      1.325405
  C       0.881061      3.129317      2.438199
  H       0.858558      4.141094      2.042626
  H       1.778609      3.030421      3.051818
  H       0.024862      2.962423      3.088110
  H       3.268460     -1.882534      0.721361
  H       1.652012     -2.875483     -1.222016
39
Coordinates from ORCA-job reaction4-IEIP_ts_guess_scan_7-5_orca E -1288.398781510167
  Ir      0.595985     -0.713578      0.434456
  C       0.042118     -2.807542      0.391381
  C       0.077537     -2.325932      1.746965
  C       2.193419     -2.115917      0.851671
  C       1.326340     -2.662338     -0.166755
  C       1.428415     -1.941115      2.021911
  N      -1.066540      0.138454     -0.539101
  C      -2.337907      0.427070      0.142390
  C      -3.145954      1.532485     -0.519096
  H      -3.974546      1.802714      0.134123
  H      -3.587397      1.226393     -1.468757
  H      -2.552009      2.432625     -0.679712
  C      -3.145760     -0.858472      0.276604
  H      -2.047974      0.760893      1.139753
  H      -4.057812     -0.660718      0.837861
  H      -3.433457     -1.249353     -0.700217
  H      -2.596331     -1.631786      0.811383
  C      -0.890165      0.371683     -1.783866
  C       0.456172      0.189988     -2.265907
  H      -1.684575      0.740101     -2.425831
  C       1.526244      0.338886     -1.386790
  C       2.751217      0.025568     -2.048107
  S       0.927707     -0.313319     -3.819024
  C       2.579209     -0.335938     -3.347631
  H       1.473313      1.242934     -0.586369
  H       3.723854      0.117934     -1.586843
  H       3.337246     -0.594381     -4.071521
  H      -0.828216     -3.190221     -0.122175
  H      -0.734741     -2.341585      2.458155
  H       1.782162     -1.514958      2.949839
  O       1.612081      2.382816      0.263472
  O       0.526808      0.967303      1.602230
  C       1.041790      2.112662      1.323548
  C       0.956184      3.131281      2.424159
  H       1.045475      4.138493      2.026432
  H       1.782772      2.972162      3.119420
  H       0.032992      3.033084      2.991110
  H       3.246108     -1.902108      0.744111
  H       1.617607     -2.927078     -1.172533
39
Coordinates from ORCA-job reaction4-IEIP_ts_guess_scan_7-5_orca E -1288.400277029971
  Ir      0.604539     -0.706638      0.435013
  C       0.058875     -2.802284      0.364850
  C       0.088394     -2.337959      1.726528
  C       2.206057     -2.107986      0.839823
  C       1.344279     -2.644757     -0.188084
  C       1.436710     -1.950764      2.009979
  N      -1.055067      0.154237     -0.528677
  C      -2.326860      0.439332      0.153377
  C      -3.132418      1.550965     -0.500686
  H      -3.961594      1.817296      0.153380
  H      -3.572885      1.252805     -1.453327
  H      -2.537057      2.451517     -0.653529
  C      -3.137044     -0.845884      0.276557
  H      -2.037719      0.765000      1.153709
  H      -4.049528     -0.651070      0.838152
  H      -3.424079     -1.228693     -0.703650
  H      -2.589563     -1.624195      0.805991
  C      -0.874947      0.397146     -1.771399
  C       0.468059      0.197160     -2.256950
  H      -1.667690      0.769733     -2.412991
  C       1.546009      0.338073     -1.384936
  C       2.758230     -0.027670     -2.042805
  S       0.921886     -0.339004     -3.804348
  C       2.571778     -0.410492     -3.333860
  H       1.533977      1.276178     -0.617806
  H       3.734867      0.046463     -1.586771
  H       3.319685     -0.706364     -4.053863
  H      -0.808416     -3.181983     -0.155969
  H      -0.725799     -2.365915      2.435110
  H       1.786027     -1.534768      2.944171
  O       1.452165      2.425824      0.226254
  O       0.524173      0.958444      1.621503
  C       0.973178      2.125461      1.322501
  C       0.914408      3.134841      2.433306
  H       0.930515      4.146653      2.037577
  H       1.791901      3.011524      3.071030
  H       0.036513      2.991677      3.059467
  H       3.258259     -1.888970      0.738316
  H       1.639550     -2.895745     -1.196204
39
Coordinates from ORCA-job reaction4-IEIP_ts_guess_scan_7-5_orca E -1288.400309381162
  Ir      0.609917     -0.713304      0.437255
  C       0.057791     -2.807485      0.366865
  C       0.083604     -2.343360      1.728433
  C       2.205264     -2.119809      0.849272
  C       1.345677     -2.654031     -0.181616
  C       1.431765     -1.959606      2.016395
  N      -1.049254      0.152739     -0.528710
  C      -2.319145      0.442422      0.155324
  C      -3.122020      1.557050     -0.496889
  H      -3.948965      1.826020      0.158899
  H      -3.565455      1.260697     -1.448705
  H      -2.523911      2.455609     -0.650581
  C      -3.134646     -0.839383      0.279975
  H      -2.027245      0.767162      1.155246
  H      -4.045633     -0.640529      0.842619
  H      -3.424550     -1.221330     -0.699719
  H      -2.589992     -1.619779      0.809001
  C      -0.872048      0.392718     -1.772562
  C       0.469321      0.192097     -2.259520
  H      -1.665811      0.765303     -2.412956
  C       1.545360      0.331504     -1.385744
  C       2.759668     -0.021766     -2.046645
  S       0.923265     -0.345920     -3.805978
  C       2.575449     -0.394454     -3.341211
  H       1.531488      1.279084     -0.626716
  H       3.736240      0.059102     -1.591642
  H       3.325339     -0.676708     -4.064580
  H      -0.808592     -3.184778     -0.157138
  H      -0.733293     -2.368743      2.433992
  H       1.778829     -1.544248      2.951710
  O       1.411835      2.430597      0.210253
  O       0.530611      0.951119      1.623551
  C       0.959143      2.123166      1.316137
  C       0.906452      3.133202      2.426574
  H       0.899328      4.144674      2.029701
  H       1.797972      3.024025      3.047162
  H       0.043153      2.977328      3.069780
  H       3.258654     -1.904720      0.752004
  H       1.643801     -2.906477     -1.188492
39
Coordinates from ORCA-job reaction4-IEIP_ts_guess_scan_7-5_orca E -1288.400336428171
  Ir      0.610528     -0.714445      0.438406
  C       0.058233     -2.808361      0.369067
  C       0.080831     -2.343510      1.730252
  C       2.204642     -2.120596      0.855585
  C       1.347462     -2.655498     -0.176747
  C       1.428091     -1.959302      2.020737
  N      -1.047685      0.150540     -0.528451
  C      -2.317375      0.439349      0.156523
  C      -3.119325      1.556767     -0.492061
  H      -3.945760      1.824517      0.164860
  H      -3.563428      1.263734     -1.444583
  H      -2.520404      2.455207     -0.643232
  C      -3.134745     -0.841677      0.277484
  H      -2.025231      0.760962      1.157398
  H      -4.045617     -0.643045      0.840393
  H      -3.424932     -1.220552     -0.703319
  H      -2.591494     -1.624323      0.804521
  C      -0.871564      0.393256     -1.771959
  C       0.469103      0.195848     -2.261652
  H      -1.666303      0.767668     -2.410085
  C       1.545279      0.326695     -1.387044
  C       2.759331     -0.024558     -2.049379
  S       0.924211     -0.317430     -3.815865
  C       2.574371     -0.389004     -3.346332
  H       1.533282      1.274498     -0.626087
  H       3.735537      0.045932     -1.591883
  H       3.323480     -0.672176     -4.070150
  H      -0.806887     -3.185973     -0.156779
  H      -0.737780     -2.368047      2.433835
  H       1.772944     -1.543015      2.956466
  O       1.411894      2.428871      0.206682
  O       0.531662      0.950970      1.622568
  C       0.958478      2.122662      1.312963
  C       0.905366      3.135039      2.421256
  H       0.896402      4.145714      2.022420
  H       1.797677      3.028338      3.041152
  H       0.042895      2.979148      3.065578
  H       3.258392     -1.906113      0.760914
  H       1.647808     -2.908899     -1.182710
39
Coordinates from ORCA-job reaction4-IEIP_ts_guess_scan_7-5_orca E -1288.400359217206
  Ir      0.608231     -0.713770      0.441664
  C       0.058641     -2.807902      0.371590
  C       0.076145     -2.342856      1.732690
  C       2.202771     -2.117510      0.864689
  C       1.349662     -2.653821     -0.170137
  C       1.421766     -1.956740      2.027209
  N      -1.047464      0.148268     -0.526753
  C      -2.318042      0.434056      0.157968
  C      -3.118978      1.554789     -0.486302
  H      -3.945915      1.819763      0.171117
  H      -3.562309      1.266246     -1.440534
  H      -2.519594      2.453697     -0.632853
  C      -3.136242     -0.847098      0.271904
  H      -2.027323      0.751056      1.160675
  H      -4.047912     -0.650495      0.834220
  H      -3.425053     -1.221408     -0.711052
  H      -2.594338     -1.632531      0.796232
  C      -0.871400      0.394689     -1.769672
  C       0.468130      0.198436     -2.263290
  H      -1.667491      0.769451     -2.405891
  C       1.546074      0.316068     -1.388605
  C       2.758853     -0.030764     -2.055320
  S       0.921382     -0.295424     -3.824132
  C       2.571907     -0.376120     -3.357327
  H       1.537542      1.261738     -0.622557
  H       3.735385      0.029224     -1.597117
  H       3.319644     -0.652243     -4.085282
  H      -0.804217     -3.186672     -0.157174
  H      -0.744867     -2.367687      2.433430
  H       1.762980     -1.539463      2.963852
  O       1.434579      2.417943      0.210152
  O       0.529725      0.953535      1.623290
  C       0.966863      2.120683      1.313178
  C       0.908341      3.139724      2.415183
  H       0.908700      4.148185      2.010740
  H       1.794099      3.031703      3.044201
  H       0.038869      2.991996      3.051975
  H       3.256698     -1.902249      0.773802
  H       1.653528     -2.907306     -1.175020
39
Coordinates from ORCA-job reaction4-IEIP_ts_guess_scan_7-5_orca E -1288.400364538280
  Ir      0.608968     -0.715801      0.444106
  C       0.057983     -2.809544      0.374980
  C       0.070448     -2.343035      1.735640
  C       2.200964     -2.120272      0.875753
  C       1.351439     -2.657334     -0.161661
  C       1.415069     -1.957359      2.034824
  N      -1.046103      0.146677     -0.526549
  C      -2.317378      0.428951      0.158770
  C      -3.117489      1.554168     -0.478989
  H      -3.944533      1.815467      0.179773
  H      -3.560627      1.271680     -1.435088
  H      -2.517575      2.453620     -0.619860
  C      -3.136467     -0.852392      0.263825
  H      -2.027762      0.739649      1.163725
  H      -4.048672     -0.658718      0.826303
  H      -3.424383     -1.220390     -0.721773
  H      -2.595706     -1.641572      0.783734
  C      -0.871515      0.396243     -1.769303
  C       0.466480      0.202567     -2.266068
  H      -1.669498      0.770400     -2.403462
  C       1.544191      0.309691     -1.389940
  C       2.756849     -0.032590     -2.058398
  S       0.920030     -0.276532     -3.831341
  C       2.569973     -0.363625     -3.364389
  H       1.537462      1.256958     -0.623296
  H       3.733116      0.020523     -1.598878
  H       3.317814     -0.633018     -4.094736
  H      -0.802891     -3.188438     -0.156958
  H      -0.753441     -2.366098      2.433047
  H       1.752865     -1.538958      2.972229
  O       1.439208      2.416204      0.205747
  O       0.533912      0.955861      1.623210
  C       0.970702      2.121919      1.309537
  C       0.913385      3.144523      2.408273
  H       0.911854      4.151678      2.000640
  H       1.800671      3.039393      3.035613
  H       0.045456      2.997820      3.047383
  H       3.255582     -1.906635      0.789306
  H       1.658989     -2.912495     -1.164991
39
Coordinates from ORCA-job reaction4-IEIP_ts_guess_scan_7-5_orca E -1288.400369622618
  Ir      0.609858     -0.717341      0.445335
  C       0.060318     -2.811270      0.373631
  C       0.067047     -2.345128      1.734556
  C       2.201085     -2.120980      0.883469
  C       1.355954     -2.658264     -0.157440
  C       1.410182     -1.958751      2.039263
  N      -1.044545      0.145307     -0.525713
  C      -2.315188      0.427918      0.160870
  C      -3.113081      1.557254     -0.472579
  H      -3.939065      1.818226      0.187631
  H      -3.557462      1.278995     -1.429313
  H      -2.511058      2.455668     -0.610867
  C      -3.136966     -0.852093      0.261235
  H      -2.024916      0.734440      1.166932
  H      -4.048713     -0.658703      0.824587
  H      -3.425793     -1.215744     -0.725713
  H      -2.597795     -1.644481      0.777869
  C      -0.871633      0.394350     -1.768876
  C       0.465285      0.201161     -2.267302
  H      -1.670871      0.767731     -2.401922
  C       1.543309      0.305315     -1.391196
  C       2.755977     -0.032483     -2.061335
  S       0.918497     -0.273620     -3.834101
  C       2.568496     -0.359660     -3.368405
  H       1.536166      1.254553     -0.625486
  H       3.732540      0.020595     -1.602487
  H       3.316329     -0.624967     -4.100267
  H      -0.797960     -3.190744     -0.162041
  H      -0.759701     -2.368667      2.428566
  H       1.743920     -1.540217      2.978070
  O       1.435910      2.415079      0.201523
  O       0.535567      0.954894      1.622768
  C       0.970310      2.120981      1.306750
  C       0.911637      3.145708      2.403411
  H       0.904851      4.151970      1.993617
  H       1.801132      3.045585      3.028415
  H       0.046098      2.996711      3.045200
  H       3.256040     -1.907244      0.801726
  H       1.667611     -2.912896     -1.159640
39
Coordinates from ORCA-job reaction4-IEIP_ts_guess_scan_7-5_orca E -1288.400372994700
  Ir      0.610478     -0.717953      0.446013
  C       0.064559     -2.812698      0.370150
  C       0.063775     -2.347250      1.731538
  C       2.201932     -2.119411      0.891655
  C       1.362738     -2.657419     -0.153725
  C       1.404722     -1.959223      2.043401
  N      -1.044019      0.144218     -0.524552
  C      -2.314132      0.426646      0.163197
  C      -3.109204      1.560751     -0.465441
  H      -3.934369      1.821177      0.195995
  H      -3.554356      1.287491     -1.423228
  H      -2.504646      2.457960     -0.600277
  C      -3.138469     -0.852217      0.257163
  H      -2.023575      0.727975      1.170717
  H      -4.049747     -0.660139      0.821750
  H      -3.428210     -1.210130     -0.731620
  H      -2.600595     -1.648479      0.769191
  C      -0.872889      0.391974     -1.768280
  C       0.463241      0.199073     -2.267889
  H      -1.673435      0.763992     -2.400508
  C       1.541899      0.303081     -1.392450
  C       2.754313     -0.033225     -2.063237
  S       0.916087     -0.275471     -3.835115
  C       2.566114     -0.359422     -3.370623
  H       1.534207      1.253925     -0.628014
  H       3.731243      0.020608     -1.605284
  H       3.313808     -0.623017     -4.103271
  H      -0.790141     -3.193591     -0.170190
  H      -0.766449     -2.372422      2.421341
  H       1.733009     -1.540632      2.984112
  O       1.430888      2.415714      0.196842
  O       0.536782      0.955099      1.621875
  C       0.967828      2.121858      1.303224
  C       0.912295      3.146950      2.399725
  H       0.900184      4.152932      1.989338
  H       1.805748      3.049992      3.019570
  H       0.050934      2.995644      3.046528
  H       3.257081     -1.904574      0.815758
  H       1.679740     -2.910599     -1.154637
39
Coordinates from ORCA-job reaction4-IEIP_ts_guess_scan_7-5_orca E -1288.400376159664
  Ir      0.612147     -0.718610      0.446614
  C       0.074014     -2.815239      0.361666
  C       0.057973     -2.351447      1.723996
  C       2.204212     -2.115488      0.906949
  C       1.377224     -2.654996     -0.147417
  C       1.394246     -1.960082      2.050510
  N      -1.043569      0.142970     -0.521513
  C      -2.312812      0.423870      0.168543
  C      -3.102016      1.568024     -0.449479
  H      -3.925981      1.826529      0.214185
  H      -3.548019      1.305815     -1.409901
  H      -2.492351      2.462938     -0.576068
  C      -3.141776     -0.853017      0.247754
  H      -2.022092      0.713508      1.179336
  H      -4.051934     -0.665108      0.815573
  H      -3.433599     -1.197657     -0.745137
  H      -2.605776     -1.657658      0.748658
  C      -0.875892      0.388810     -1.766220
  C       0.458928      0.196007     -2.268253
  H      -1.678819      0.758726     -2.396717
  C       1.539452      0.300620     -1.394928
  C       2.750565     -0.036453     -2.066922
  S       0.909936     -0.280002     -3.836063
  C       2.559970     -0.363372     -3.374009
  H       1.531898      1.252910     -0.632002
  H       3.728441      0.017696     -1.611075
  H       3.306593     -0.627358     -4.107653
  H      -0.773333     -3.199170     -0.188002
  H      -0.779142     -2.380431      2.405300
  H       1.711305     -1.541621      2.995147
  O       1.427354      2.416806      0.189724
  O       0.540702      0.956541      1.619916
  C       0.969073      2.123516      1.298149
  C       0.911984      3.151018      2.392354
  H       0.888918      4.155703      1.979178
  H       1.810547      3.063446      3.006174
  H       0.056295      2.994331      3.045311
  H       3.259606     -1.898201      0.842823
  H       1.705097     -2.904684     -1.145759
39
Coordinates from ORCA-job reaction4-IEIP_ts_guess_scan_7-5_orca E -1288.400379637283
  Ir      0.613253     -0.718042      0.446861
  C       0.082066     -2.816407      0.354412
  C       0.053084     -2.354171      1.717316
  C       2.205719     -2.110576      0.919332
  C       1.389344     -2.651710     -0.142332
  C       1.384977     -1.959513      2.056028
  N      -1.043715      0.142410     -0.518942
  C      -2.312579      0.421577      0.172477
  C      -3.097825      1.572635     -0.437860
  H      -3.921397      1.829280      0.227009
  H      -3.543832      1.318426     -1.400393
  H      -2.484835      2.466143     -0.558015
  C      -3.144369     -0.854112      0.240884
  H      -2.021970      0.702714      1.185626
  H      -4.053216     -0.670162      0.812083
  H      -3.438492     -1.188423     -0.754864
  H      -2.608750     -1.664833      0.732448
  C      -0.878134      0.387241     -1.764156
  C       0.456050      0.193866     -2.268173
  H      -1.682287      0.756544     -2.393459
  C       1.538431      0.298923     -1.397001
  C       2.748040     -0.039094     -2.071422
  S       0.903960     -0.283458     -3.836608
  C       2.554565     -0.368154     -3.377519
  H       1.532013      1.250745     -0.634024
  H       3.726976      0.015084     -1.617877
  H       3.299600     -0.633999     -4.112108
  H      -0.759077     -3.203083     -0.202793
  H      -0.789668     -2.386760      2.391488
  H       1.692295     -1.541054      3.003906
  O       1.428030      2.415861      0.186042
  O       0.542079      0.958026      1.618464
  C       0.969308      2.124859      1.294794
  C       0.912820      3.153830      2.387686
  H       0.884288      4.157725      1.972872
  H       1.814515      3.070986      2.997571
  H       0.060549      2.995026      3.044526
  H       3.261141     -1.890918      0.864899
  H       1.726414     -2.898241     -1.138439
39
Coordinates from ORCA-job reaction4-IEIP_ts_guess_scan_7-5_orca E -1288.400380119912
  Ir      0.614923     -0.717693      0.446713
  C       0.090214     -2.817684      0.347469
  C       0.047385     -2.356589      1.710556
  C       2.206771     -2.105842      0.932943
  C       1.401866     -2.649162     -0.136083
  C       1.374353     -1.958455      2.062075
  N      -1.043811      0.141721     -0.516457
  C      -2.312386      0.418543      0.176418
  C      -3.094179      1.576302     -0.425693
  H      -3.917734      1.830208      0.240244
  H      -3.539799      1.330485     -1.390558
  H      -2.478476      2.468870     -0.538649
  C      -3.146902     -0.855921      0.233908
  H      -2.021898      0.691048      1.191912
  H      -4.053792     -0.676457      0.809599
  H      -3.444367     -1.179057     -0.764537
  H      -2.611145     -1.672948      0.714859
  C      -0.880161      0.386980     -1.761767
  C       0.453391      0.193120     -2.268292
  H      -1.685144      0.756987     -2.389624
  C       1.537635      0.297375     -1.399429
  C       2.745314     -0.043087     -2.076668
  S       0.897047     -0.283469     -3.837932
  C       2.548747     -0.371429     -3.382324
  H       1.534113      1.248212     -0.635860
  H       3.725263      0.009120     -1.625056
  H       3.291836     -0.638937     -4.118249
  H      -0.744436     -3.207186     -0.217456
  H      -0.801385     -2.392390      2.376989
  H       1.671122     -1.539475      3.013115
  O       1.432818      2.414468      0.182921
  O       0.544339      0.959685      1.616438
  C       0.972055      2.125961      1.291464
  C       0.913682      3.157074      2.382193
  H       0.880049      4.159905      1.965125
  H       1.817409      3.079711      2.989779
  H       0.063662      2.996315      3.041415
  H       3.262231     -1.884209      0.888784
  H       1.748760     -2.892907     -1.129545
39
Coordinates from ORCA-job reaction4-IEIP_ts_guess_scan_7-5_orca E -1288.400379580716
  Ir      0.615962     -0.717957      0.446685
  C       0.094066     -2.818627      0.344345
  C       0.043552     -2.357945      1.707356
  C       2.206730     -2.104037      0.941080
  C       1.408226     -2.648734     -0.131879
  C       1.367728     -1.957926      2.065834
  N      -1.043806      0.141133     -0.515488
  C      -2.312223      0.416767      0.178137
  C      -3.092886      1.577295     -0.420131
  H      -3.916709      1.829353      0.246179
  H      -3.538069      1.335377     -1.386174
  H      -2.476513      2.469856     -0.529431
  C      -3.147956     -0.857098      0.230977
  H      -2.021733      0.685617      1.194597
  H      -4.053475     -0.679708      0.809442
  H      -3.447714     -1.174878     -0.768497
  H      -2.611939     -1.677132      0.706529
  C      -0.880965      0.387375     -1.760618
  C       0.452193      0.193205     -2.268663
  H      -1.686085      0.758383     -2.387746
  C       1.537264      0.295937     -1.400805
  C       2.744026     -0.044240     -2.080277
  S       0.893148     -0.281753     -3.839230
  C       2.545805     -0.371247     -3.385883
  H       1.535787      1.246594     -0.636916
  H       3.724473      0.006954     -1.629610
  H       3.287822     -0.638430     -4.122979
  H      -0.737110     -3.209464     -0.224758
  H      -0.808614     -2.394958      2.369381
  H       1.658635     -1.538353      3.018443
  O       1.436936      2.413259      0.181580
  O       0.545971      0.960431      1.615485
  C       0.974505      2.126193      1.289850
  C       0.914997      3.158738      2.379128
  H       0.879032      4.160910      1.960644
  H       1.819572      3.084199      2.985797
  H       0.065908      2.997347      3.039376
  H       3.262278     -1.881828      0.902682
  H       1.760555     -2.891420     -1.123704
39
Coordinates from ORCA-job reaction4-IEIP_ts_guess_scan_7-5_orca E -1288.400379186553
  Ir      0.616489     -0.718367      0.446661
  C       0.096142     -2.819294      0.342577
  C       0.040903     -2.358877      1.705531
  C       2.206419     -2.103227      0.946217
  C       1.411863     -2.648792     -0.129157
  C       1.363375     -1.957639      2.068202
  N      -1.043796      0.140651     -0.515325
  C      -2.311964      0.415959      0.178870
  C      -3.092597      1.577322     -0.417842
  H      -3.916591      1.828266      0.248683
  H      -3.537615      1.336896     -1.384331
  H      -2.476402      2.470189     -0.525641
  C      -3.148206     -0.857614      0.230475
  H      -2.021210      0.683776      1.195539
  H      -4.052757     -0.680855      0.810647
  H      -3.449575     -1.173283     -0.769177
  H      -2.611988     -1.678918      0.703598
  C      -0.881394      0.387685     -1.760291
  C       0.451470      0.193549     -2.269241
  H      -1.686468      0.759483     -2.387030
  C       1.536820      0.294762     -1.401733
  C       2.743207     -0.044901     -2.082269
  S       0.891174     -0.279408     -3.840534
  C       2.544404     -0.369682     -3.388289
  H       1.536823      1.245592     -0.637654
  H       3.723753      0.005302     -1.631697
  H       3.285947     -0.635798     -4.126231
  H      -0.732936     -3.210808     -0.229109
  H      -0.813390     -2.396355      2.364786
  H       1.650727     -1.537595      3.021693
  O       1.439514      2.412480      0.180710
  O       0.547011      0.960531      1.614784
  C       0.976197      2.125930      1.288804
  C       0.916272      3.159255      2.377316
  H       0.878955      4.161066      1.958073
  H       1.821422      3.086233      2.983308
  H       0.067827      2.997533      3.038302
  H       3.262046     -1.880849      0.911434
  H       1.767500     -2.891007     -1.119918
39
Coordinates from ORCA-job reaction4-IEIP_ts_guess_scan_7-5_orca E -1288.400379425671
  Ir      0.616400     -0.718589      0.446612
  C       0.096658     -2.819575      0.341848
  C       0.039782     -2.359340      1.704834
  C       2.206092     -2.102996      0.947926
  C       1.412912     -2.648856     -0.128317
  C       1.361672     -1.957621      2.068934
  N      -1.043949      0.140461     -0.515482
  C      -2.311986      0.415884      0.178880
  C      -3.093055      1.576860     -0.418012
  H      -3.917178      1.827449      0.248492
  H      -3.537974      1.336229     -1.384494
  H      -2.477327      2.470050     -0.525816
  C      -3.148124     -0.857725      0.231143
  H      -2.021044      0.684237      1.195361
  H      -4.052365     -0.680802      0.811754
  H      -3.450001     -1.173571     -0.768296
  H      -2.611776     -1.678995      0.704156
  C      -0.881568      0.387787     -1.760377
  C       0.451198      0.193649     -2.269488
  H      -1.686541      0.759811     -2.387118
  C       1.536558      0.294334     -1.401981
  C       2.742970     -0.044627     -2.082774
  S       0.890805     -0.278563     -3.841008
  C       2.544155     -0.368706     -3.388976
  H       1.537023      1.245391     -0.637931
  H       3.723476      0.005582     -1.632117
  H       3.285629     -0.634108     -4.127243
  H      -0.731689     -3.211274     -0.230769
  H      -0.815258     -2.396902      2.363111
  H       1.647836     -1.537441      3.022727
  O       1.440461      2.412284      0.180514
  O       0.547328      0.960574      1.614567
  C       0.977019      2.125775      1.288578
  C       0.917506      3.159211      2.377031
  H       0.879877      4.160966      1.957680
  H       1.822988      3.086372      2.982552
  H       0.069426      2.997501      3.038484
  H       3.261755     -1.880596      0.914462
  H       1.769672     -2.890928     -1.118710
