! Opt PBEh-3c
%geom Constraints
{ B 0 20 2.3 C }
{ B 24 30 1.4142857142857144 C }
    end
end
%output 
xyzfile=True 
end 
%scf 
maxiter 250 
end
%output
Print[P_Hirshfeld] = 1
end
% maxcore
4000
*xyz 1 1
Ir   0.60948515  -0.71715377   0.45030129 
C    0.07729558  -2.81284124   0.34950234 
C    0.06440527  -2.35277252   1.71401773 
C    2.20732911  -2.11079543   0.89317478 
C    1.37821998  -2.64677144  -0.16173599 
C    1.40210872  -1.96374120   2.04049705 
N   -1.04445238   0.14737535  -0.51743351 
C   -2.31438392   0.43481492   0.16843509 
C   -3.10102061   1.57402390  -0.46129671 
H   -3.92668978   1.83925176   0.19761358 
H   -3.54461795   1.30396845  -1.42068601 
H   -2.49006315   2.46720711  -0.59382162 
C   -3.14347263  -0.84123768   0.25744460 
H   -2.02454873   0.73275588   1.17706346 
H   -4.05200774  -0.64987072   0.82658880 
H   -3.43784626  -1.19177628  -0.73262847 
H   -2.60593560  -1.64285295   0.76178635 
C   -0.87296764   0.38164902  -1.76291763 
C    0.46482492   0.18309257  -2.26155160 
H   -1.67311181   0.74657644  -2.40007958 
C    1.55469600   0.34690578  -1.41070201 
C    2.76112890  -0.01266691  -2.07956354 
S    0.90223667  -0.36620278  -3.81025168 
C    2.55937319  -0.41007439  -3.36472234 
H    1.53314617   1.28024327  -0.63961102 
H    3.74323846   0.07471659  -1.63815555 
H    3.30011434  -0.70525962  -4.09240022 
H   -0.77150515  -3.19592251  -0.19852200 
H   -0.77056509  -2.38700108   2.39786646 
H    1.72077994  -1.54977971   2.98657368 
O    1.40600944   2.42683708   0.20298925 
O    0.54043648   0.94983945   1.62926005 
C    0.95807862   2.12362978   1.31135514 
C    0.90091504   3.14074255   2.41541458 
H    0.86495275   4.14854271   2.01073312 
H    1.80594270   3.05711422   3.02028243 
H    0.05272415   2.97134220   3.07497213 
H    3.26130315  -1.88783486   0.82421090 
H    1.70381382  -2.88688398  -1.16326327 
*
