39
Coordinates from ORCA-job reaction4-IEIP_ts_guess_scan_0-7_orca E -1288.394021245432
  Ir      0.569126     -0.737255      0.489852
  C       0.014224     -2.814348      0.349299
  C       0.101961     -2.376623      1.722458
  C       2.182904     -2.152091      0.767456
  C       1.276316     -2.645790     -0.245316
  C       1.472590     -2.027602      1.972981
  N      -1.041298      0.169773     -0.508451
  C      -2.317175      0.508294      0.142315
  C      -3.133014      1.541448     -0.617546
  H      -3.968677      1.856423      0.005800
  H      -3.564359      1.148427     -1.539630
  H      -2.550953      2.433213     -0.852318
  C      -3.117180     -0.763777      0.393964
  H      -2.030907      0.935454      1.105041
  H      -4.035511     -0.517976      0.924980
  H      -3.394609     -1.249490     -0.542562
  H      -2.571561     -1.477987      1.009143
  C      -0.824212      0.372849     -1.749788
  C       0.529720      0.153476     -2.214685
  H      -1.599631      0.729812     -2.421897
  C       1.639696      0.566238     -1.488730
  C       2.837921      0.152513     -2.137748
  S       0.942164     -0.660138     -3.662696
  C       2.614569     -0.507942     -3.305394
  H       1.544375      1.423242     -0.674431
  H       3.828112      0.385466     -1.773858
  H       3.346095     -0.898679     -3.996560
  H      -0.878330     -3.168637     -0.146048
  H      -0.685042     -2.416107      2.461472
  H       1.864475     -1.648549      2.905871
  O       1.301005      2.430864      0.266563
  O       0.539516      0.893766      1.693150
  C       0.907855      2.092878      1.380141
  C       0.854993      3.075912      2.515575
  H       0.808646      4.094225      2.139310
  H       1.764689      2.981173      3.111791
  H       0.013922      2.884027      3.178576
  H       3.226245     -1.916298      0.617867
  H       1.530714     -2.850994     -1.275204
39
Coordinates from ORCA-job reaction4-IEIP_ts_guess_scan_0-7_orca E -1288.394016050077
  Ir      0.567716     -0.739133      0.492197
  C       0.009386     -2.815753      0.357609
  C       0.098166     -2.374469      1.729564
  C       2.179269     -2.155833      0.773338
  C       1.271639     -2.650828     -0.237862
  C       1.469409     -2.026940      1.978726
  N      -1.041168      0.167134     -0.508700
  C      -2.318208      0.503970      0.140754
  C      -3.133557      1.537819     -0.618725
  H      -3.970197      1.851531      0.003957
  H      -3.563504      1.145917     -1.541929
  H      -2.551603      2.430174     -0.851510
  C      -3.117915     -0.768878      0.389388
  H      -2.033648      0.929867      1.104545
  H      -4.037170     -0.524380      0.919417
  H      -3.393681     -1.253367     -0.548259
  H      -2.572784     -1.483693      1.004297
  C      -0.823087      0.372513     -1.749730
  C       0.530865      0.155418     -2.216289
  H      -1.598578      0.731116     -2.420896
  C       1.641554      0.560486     -1.487162
  C       2.839053      0.154576     -2.142600
  S       0.941797     -0.642078     -3.673825
  C       2.614574     -0.492024     -3.317769
  H       1.546151      1.409854     -0.658554
  H       3.829676      0.383212     -1.777124
  H       3.345346     -0.874369     -4.014436
  H      -0.883869     -3.169950     -0.136544
  H      -0.688691     -2.410734      2.468890
  H       1.862163     -1.646050      2.910502
  O       1.309078      2.434265      0.265772
  O       0.541864      0.897745      1.691533
  C       0.913598      2.095872      1.378674
  C       0.861190      3.079014      2.513770
  H       0.816859      4.097394      2.137431
  H       1.770155      2.982810      3.110864
  H       0.019143      2.888387      3.175836
  H       3.222955     -1.922162      0.622851
  H       1.525425     -2.859242     -1.267259
39
Coordinates from ORCA-job reaction4-IEIP_ts_guess_scan_0-7_orca E -1288.393885871374
  Ir      0.565186     -0.733484      0.490678
  C       0.013050     -2.811675      0.354707
  C       0.099029     -2.370969      1.726995
  C       2.180581     -2.145675      0.773071
  C       1.275525     -2.642718     -0.239409
  C       1.468952     -2.019455      1.977757
  N      -1.045778      0.166503     -0.511978
  C      -2.323477      0.502607      0.136824
  C      -3.141469      1.532203     -0.625661
  H      -3.978371      1.846333     -0.003527
  H      -3.571213      1.136325     -1.547247
  H      -2.561493      2.424932     -0.861920
  C      -3.120473     -0.771039      0.390016
  H      -2.039706      0.932367      1.099145
  H      -4.040185     -0.526728      0.919362
  H      -3.395315     -1.259339     -0.545916
  H      -2.573693     -1.482563      1.007258
  C      -0.829194      0.365734     -1.754454
  C       0.524734      0.149269     -2.220743
  H      -1.606292      0.718285     -2.426976
  C       1.634097      0.561859     -1.494143
  C       2.832146      0.153369     -2.147120
  S       0.936906     -0.653731     -3.675100
  C       2.609119     -0.500392     -3.318703
  H       1.535877      1.427009     -0.670425
  H       3.822446      0.386167     -1.783356
  H       3.340695     -0.885231     -4.013184
  H      -0.878623     -3.168197     -0.140629
  H      -0.688507     -2.410042      2.465439
  H       1.859601     -1.638012      2.910190
  O       1.380407      2.428570      0.295342
  O       0.534139      0.905460      1.691110
  C       0.939398      2.096126      1.393345
  C       0.869540      3.078628      2.527621
  H       0.857671      4.098203      2.152068
  H       1.756536      2.963572      3.153720
  H       0.002758      2.903660      3.161379
  H       3.223754     -1.908938      0.623857
  H       1.531014     -2.849804     -1.268652
39
Coordinates from ORCA-job reaction4-IEIP_ts_guess_scan_0-7_orca E -1288.393868147442
  Ir      0.570337     -0.735479      0.489433
  C       0.017520     -2.812316      0.341112
  C       0.104657     -2.380293      1.716038
  C       2.185608     -2.149586      0.761808
  C       1.279597     -2.639801     -0.253141
  C       1.474900     -2.030706      1.967840
  N      -1.039173      0.172177     -0.506282
  C      -2.315774      0.509450      0.144278
  C      -3.130875      1.544867     -0.613475
  H      -3.966449      1.859060      0.010412
  H      -3.562375      1.154288     -1.536489
  H      -2.548201      2.436739     -0.846309
  C      -3.116925     -0.762586      0.392400
  H      -2.030429      0.934354      1.108322
  H      -4.035826     -0.517414      0.922765
  H      -3.393385     -1.246222     -0.545476
  H      -2.572487     -1.478358      1.006758
  C      -0.821479      0.373907     -1.748060
  C       0.531755      0.151711     -2.212498
  H      -1.597436      0.727549     -2.421318
  C       1.642206      0.567312     -1.488908
  C       2.838401      0.139041     -2.132278
  S       0.941628     -0.669802     -3.657205
  C       2.613546     -0.529443     -3.295185
  H       1.551879      1.454625     -0.683964
  H       3.829610      0.369530     -1.769480
  H       3.344098     -0.929789     -3.981909
  H      -0.874649     -3.165410     -0.155771
  H      -0.682324     -2.423763      2.454822
  H       1.866408     -1.655216      2.902322
  O       1.260359      2.445503      0.261117
  O       0.541594      0.895896      1.696479
  C       0.892048      2.098730      1.381443
  C       0.851470      3.078444      2.519483
  H       0.784959      4.097068      2.147060
  H       1.774746      2.993185      3.095938
  H       0.026981      2.874401      3.199293
  H       3.228720     -1.912153      0.613280
  H       1.534131     -2.840306     -1.283916
39
Coordinates from ORCA-job reaction4-IEIP_ts_guess_scan_0-7_orca E -1288.393950969933
  Ir      0.568797     -0.740859      0.495109
  C       0.010567     -2.816897      0.358721
  C       0.097484     -2.376720      1.731011
  C       2.179945     -2.157510      0.777992
  C       1.273650     -2.651556     -0.234849
  C       1.468388     -2.029292      1.982335
  N      -1.039594      0.166974     -0.507377
  C      -2.315962      0.505264      0.142359
  C      -3.129445      1.541129     -0.616350
  H      -3.965512      1.855850      0.006574
  H      -3.560085      1.150705     -1.539875
  H      -2.545885      2.432614     -0.848430
  C      -3.117826     -0.766461      0.389845
  H      -2.030601      0.929938      1.106462
  H      -4.036777     -0.520747      0.919803
  H      -3.394207     -1.249823     -0.548216
  H      -2.574119     -1.482640      1.004427
  C      -0.822111      0.373374     -1.748201
  C       0.531346      0.157608     -2.215750
  H      -1.597951      0.733015     -2.418427
  C       1.642612      0.557871     -1.484846
  C       2.839889      0.156961     -2.143354
  S       0.941460     -0.639655     -3.673533
  C       2.614651     -0.484549     -3.321140
  H       1.549341      1.399245     -0.658508
  H       3.830652      0.385432     -1.778130
  H       3.345087     -0.862618     -4.020418
  H      -0.882001     -3.170648     -0.136986
  H      -0.690434     -2.413450      2.469186
  H       1.859816     -1.648919      2.914879
  O       1.292431      2.426510      0.257312
  O       0.540917      0.891738      1.691559
  C       0.905815      2.090144      1.373981
  C       0.857583      3.076463      2.506926
  H       0.806347      4.093590      2.128135
  H       1.771271      2.985726      3.097653
  H       0.021147      2.884336      3.175748
  H       3.223847     -1.923747      0.629161
  H       1.528835     -2.859202     -1.264048
39
Coordinates from ORCA-job reaction4-IEIP_ts_guess_scan_0-7_orca E -1288.394038469980
  Ir      0.567423     -0.736727      0.492517
  C       0.011920     -2.813617      0.354795
  C       0.098735     -2.374444      1.727459
  C       2.180603     -2.151600      0.773651
  C       1.274606     -2.646074     -0.239270
  C       1.469248     -2.025327      1.978455
  N      -1.042024      0.167376     -0.509185
  C      -2.319527      0.503076      0.140156
  C      -3.135364      1.537078     -0.618698
  H      -3.971973      1.850258      0.004299
  H      -3.565434      1.145576     -1.542008
  H      -2.553703      2.429690     -0.851220
  C      -3.118809     -0.770236      0.387800
  H      -2.035591      0.928601      1.104304
  H      -4.038517     -0.526420      0.917364
  H      -3.393748     -1.254474     -0.550220
  H      -2.573726     -1.485064      1.002735
  C      -0.824960      0.370768     -1.750838
  C       0.528519      0.155076     -2.218050
  H      -1.601782      0.726211     -2.422146
  C       1.638960      0.560977     -1.489345
  C       2.836195      0.150714     -2.142312
  S       0.939311     -0.642524     -3.675661
  C       2.611714     -0.499339     -3.315659
  H       1.545043      1.420286     -0.666338
  H       3.827005      0.377868     -1.776373
  H       3.342546     -0.885701     -4.010036
  H      -0.880365     -3.168161     -0.140861
  H      -0.688829     -2.412954      2.465908
  H       1.860577     -1.645388      2.911218
  O       1.323245      2.434566      0.272833
  O       0.539550      0.900559      1.691981
  C       0.918364      2.096804      1.382996
  C       0.863856      3.079899      2.517893
  H       0.824657      4.098542      2.141738
  H       1.769767      2.980529      3.119110
  H       0.018091      2.891680      3.175879
  H       3.224150     -1.916383      0.624618
  H       1.529634     -2.852512     -1.268752
39
Coordinates from ORCA-job reaction4-IEIP_ts_guess_scan_0-7_orca E -1288.394041621081
  Ir      0.567967     -0.737462      0.493639
  C       0.012774     -2.814100      0.353253
  C       0.098531     -2.376528      1.726464
  C       2.181094     -2.152395      0.774457
  C       1.275881     -2.645707     -0.239721
  C       1.468821     -2.027531      1.978862
  N      -1.040693      0.167601     -0.508104
  C      -2.317758      0.504846      0.141302
  C      -3.132368      1.539809     -0.617564
  H      -3.968408      1.854230      0.005571
  H      -3.563182      1.148761     -1.540717
  H      -2.549542      2.431587     -0.850361
  C      -3.118661     -0.767402      0.389211
  H      -2.033184      0.930186      1.105357
  H      -4.038074     -0.522305      0.918699
  H      -3.394186     -1.251503     -0.548707
  H      -2.574515     -1.482778      1.004320
  C      -0.823764      0.369537     -1.749998
  C       0.529443      0.152356     -2.216809
  H      -1.600641      0.723975     -2.421793
  C       1.639966      0.559214     -1.488644
  C       2.837097      0.150906     -2.142970
  S       0.939792     -0.653409     -3.670071
  C       2.612477     -0.498533     -3.316667
  H       1.546331      1.422113     -0.669292
  H       3.827894      0.382072     -1.779525
  H       3.343230     -0.881424     -4.013042
  H      -0.879104     -3.168135     -0.143492
  H      -0.689588     -2.415947      2.464272
  H       1.859423     -1.648617      2.912343
  O       1.309669      2.433546      0.269322
  O       0.539185      0.897876      1.693353
  C       0.912211      2.095126      1.382014
  C       0.860399      3.078813      2.516542
  H       0.814966      4.097032      2.139929
  H       1.770225      2.983472      3.112485
  H       0.019271      2.887699      3.179615
  H       3.224728     -1.916910      0.626477
  H       1.531662     -2.850880     -1.269269
39
Coordinates from ORCA-job reaction4-IEIP_ts_guess_scan_0-7_orca E -1288.394046799481
  Ir      0.568232     -0.737416      0.493644
  C       0.013268     -2.814077      0.353325
  C       0.099016     -2.376492      1.726521
  C       2.181539     -2.152155      0.774492
  C       1.276339     -2.645554     -0.239659
  C       1.469275     -2.027342      1.978895
  N      -1.040725      0.167526     -0.508086
  C      -2.317735      0.504341      0.141603
  C      -3.132175      1.540032     -0.616450
  H      -3.968140      1.854122      0.006950
  H      -3.563085      1.149791     -1.539903
  H      -2.549176      2.431873     -0.848568
  C      -3.118741     -0.768057      0.388398
  H      -2.033129      0.928853      1.106008
  H      -4.038159     -0.523326      0.918039
  H      -3.394256     -1.251355     -0.549939
  H      -2.574688     -1.483995      1.002941
  C      -0.824059      0.370460     -1.749865
  C       0.529104      0.154360     -2.217284
  H      -1.601137      0.725523     -2.421095
  C       1.639756      0.559783     -1.488554
  C       2.836851      0.149980     -2.141930
  S       0.939534     -0.645919     -3.673499
  C       2.612075     -0.499737     -3.315446
  H       1.546666      1.419921     -0.667951
  H       3.827738      0.377926     -1.776703
  H       3.342779     -0.885232     -4.010430
  H      -0.878580     -3.168208     -0.143409
  H      -0.689087     -2.415986      2.464342
  H       1.859860     -1.648389      2.912368
  O       1.308176      2.433498      0.267882
  O       0.539386      0.897817      1.692838
  C       0.911604      2.095163      1.380906
  C       0.860057      3.079162      2.515228
  H       0.813493      4.097226      2.138339
  H       1.770525      2.984726      3.110338
  H       0.019707      2.887621      3.179175
  H       3.225151     -1.916571      0.626495
  H       1.532111     -2.850702     -1.269217
39
Coordinates from ORCA-job reaction4-IEIP_ts_guess_scan_0-7_orca E -1288.394047687904
  Ir      0.567916     -0.737381      0.493984
  C       0.012694     -2.814027      0.354049
  C       0.098368     -2.376172      1.727167
  C       2.181020     -2.152301      0.775294
  C       1.275841     -2.645794     -0.238842
  C       1.468647     -2.027148      1.979605
  N      -1.040896      0.167201     -0.508193
  C      -2.318163      0.503546      0.141294
  C      -3.132597      1.539458     -0.616489
  H      -3.968681      1.853238      0.006911
  H      -3.563355      1.149558     -1.540156
  H      -2.549629      2.431430     -0.848181
  C      -3.118994     -0.769112      0.387306
  H      -2.033922      0.927680      1.105964
  H      -4.038606     -0.524810      0.916810
  H      -3.394150     -1.252046     -0.551323
  H      -2.574948     -1.485227      1.001662
  C      -0.824303      0.369908     -1.750058
  C       0.528828      0.154189     -2.217623
  H      -1.601601      0.724439     -2.421312
  C       1.639388      0.559277     -1.488597
  C       2.836569      0.150477     -2.142407
  S       0.939415     -0.645392     -3.674180
  C       2.611935     -0.498054     -3.316626
  H       1.546019      1.419365     -0.667424
  H       3.827408      0.378621     -1.777176
  H       3.342725     -0.882370     -4.012175
  H      -0.879152     -3.168140     -0.142705
  H      -0.689814     -2.415429      2.464917
  H       1.859203     -1.648108      2.913055
  O       1.312530      2.433591      0.268967
  O       0.539493      0.898930      1.692866
  C       0.913683      2.095791      1.381356
  C       0.861719      3.079975      2.515477
  H       0.816484      4.098027      2.138398
  H       1.771463      2.984827      3.111581
  H       0.020476      2.889261      3.178525
  H       3.224684     -1.916908      0.627359
  H       1.531674     -2.851178     -1.268338
