! Opt PBEh-3c
%geom Constraints
{ B 0 20 2.5571428571428574 C }
{ B 24 30 1.3142857142857143 C }
    end
end
%output 
xyzfile=True 
end 
%scf 
maxiter 250 
end
%output
Print[P_Hirshfeld] = 1
end
% maxcore
4000
*xyz 1 1
Ir   0.56123367  -0.74582072   0.53013097 
C    0.00630947  -2.82068758   0.38748778 
C    0.05759698  -2.38047197   1.76049168 
C    2.16552138  -2.16166974   0.86101829 
C    1.28455807  -2.65501534  -0.17426127 
C    1.42121223  -2.03124568   2.04570310 
N   -1.03579088   0.14284363  -0.49857778 
C   -2.32257426   0.45843542   0.14553396 
C   -3.11562544   1.53802022  -0.57437140 
H   -3.95271009   1.83776372   0.05471509 
H   -3.54436876   1.19561733  -1.51744925 
H   -2.51640703   2.42915499  -0.76333411 
C   -3.13908435  -0.81669428   0.31698691 
H   -2.05376621   0.83472050   1.13415741 
H   -4.06716289  -0.58966530   0.83954670 
H   -3.39903278  -1.25329679  -0.64828125 
H   -2.61231932  -1.56561846   0.90671062 
C   -0.82871692   0.34790300  -1.74406345 
C    0.51679327   0.16752441  -2.23438166 
H   -1.62294993   0.68400014  -2.40516287 
C    1.62986500   0.51125059  -1.47929651 
C    2.82236054   0.15393598  -2.16728772 
S    0.92029027  -0.50692679  -3.75578379 
C    2.59190419  -0.39229479  -3.39337194 
H    1.54998900   1.39706499  -0.61377120 
H    3.81615257   0.34708839  -1.78991607 
H    3.32008136  -0.71708521  -4.12134099 
H   -0.87229570  -3.17562490  -0.13175901 
H   -0.74938203  -2.41736208   2.47763721 
H    1.78842386  -1.65093848   2.98808260 
O    1.38729888   2.39455712   0.24857640 
O    0.53902218   0.92174582   1.69461111 
C    0.95468575   2.09325259   1.36521338 
C    0.91968619   3.11427577   2.46490696 
H    0.85659215   4.11907972   2.05585646 
H    1.84651170   3.04790434   3.03832610 
H    0.09705053   2.93706003   3.15382745 
H    3.21369790  -1.93110581   0.74054211 
H    1.56471947  -2.86248475  -1.19691190 
*
