39
Generated by autodE on: 2023-08-15. E = -1288.405420 Ha
Ir    0.60588  -0.74389   0.44340
C     0.13166  -2.85134   0.36423
C    -0.11384  -2.39128   1.70705
C     2.12895  -2.07604   1.23133
C     1.50526  -2.67098   0.08276
C     1.12119  -1.93535   2.22556
N    -1.06851   0.10211  -0.50533
C    -2.34863   0.28573   0.19669
C    -3.13807   1.49967  -0.27292
H    -3.97396   1.65980   0.40621
H    -3.56569   1.37014  -1.26801
H    -2.53268   2.40636  -0.26660
C    -3.17363  -0.99155   0.08708
H    -2.07987   0.44329   1.24236
H    -4.08574  -0.89779   0.67519
H    -3.46172  -1.18501  -0.94702
H    -2.63313  -1.86161   0.45638
C    -0.91519   0.46615  -1.72604
C     0.39960   0.31185  -2.26952
H    -1.72958   0.89412  -2.30205
C     1.44734   0.05830  -1.39060
C     2.65358  -0.15581  -2.11879
S     0.87389   0.32369  -3.90280
C     2.48841  -0.03438  -3.46734
H     1.66032   1.17395  -0.60946
H     3.61592  -0.33635  -1.66209
H     3.24324  -0.12078  -4.23420
H    -0.59506  -3.28881  -0.30460
H    -1.04877  -2.43624   2.24436
H     1.26230  -1.48537   3.19819
O     1.77746   2.27428   0.09970
O     0.57774   1.03823   1.50850
C     1.16437   2.10945   1.18104
C     1.14466   3.24223   2.16170
H     1.01970   4.19254   1.64731
H     2.10575   3.28008   2.67739
H     0.36274   3.11275   2.90425
H     3.17768  -1.85281   1.35160
H     1.99579  -2.93012  -0.84415
