39
Coordinates from ORCA-job reaction4-IEIP_ts_guess_scan_3-0_orca E -1288.399558480703
  Ir      0.593567     -0.714009      0.426900
  C       0.041654     -2.797066      0.314312
  C       0.143348     -2.348538      1.682709
  C       2.212695     -2.124259      0.700460
  C       1.297084     -2.632522     -0.296429
  C       1.514064     -1.990143      1.912621
  N      -1.049413      0.187592     -0.526379
  C      -2.313743      0.529704      0.142532
  C      -3.141177      1.558119     -0.610678
  H      -3.969855      1.873561      0.021694
  H      -3.582873      1.160336     -1.525902
  H      -2.564161      2.450547     -0.855316
  C      -3.108085     -0.742070      0.413148
  H      -2.011288      0.961008      1.098285
  H      -4.015829     -0.494570      0.961276
  H      -3.403711     -1.230560     -0.516326
  H      -2.549842     -1.453978      1.019494
  C      -0.838784      0.390656     -1.765958
  C       0.517019      0.137895     -2.210244
  H      -1.603947      0.762213     -2.441503
  C       1.618540      0.519640     -1.453392
  C       2.824336      0.070166     -2.066922
  S       0.945667     -0.706600     -3.631027
  C       2.613778     -0.595961     -3.232258
  H       1.535915      1.386503     -0.691504
  H       3.809474      0.283219     -1.678035
  H       3.351472     -1.013171     -3.901017
  H      -0.855230     -3.159209     -0.167399
  H      -0.634399     -2.384094      2.431542
  H       1.914445     -1.598623      2.836759
  O       1.252182      2.499945      0.272728
  O       0.544767      0.897662      1.657143
  C       0.879610      2.117683      1.375008
  C       0.807260      3.059547      2.545577
  H       0.739649      4.089025      2.204365
  H       1.718609      2.963175      3.138910
  H      -0.029547      2.828799      3.201791
  H       3.254660     -1.890465      0.539413
  H       1.541461     -2.851967     -1.325640
39
Coordinates from ORCA-job reaction4-IEIP_ts_guess_scan_3-0_orca E -1288.398723134259
  Ir      0.598095     -0.703762      0.419001
  C       0.058201     -2.790736      0.294282
  C       0.150942     -2.350142      1.665671
  C       2.223477     -2.107720      0.694489
  C       1.315534     -2.616042     -0.309363
  C       1.518072     -1.983848      1.903758
  N      -1.056140      0.192302     -0.532456
  C      -2.316820      0.539070      0.139703
  C      -3.149251      1.557744     -0.621104
  H      -3.975659      1.878901      0.011355
  H      -3.594174      1.149097     -1.529996
  H      -2.574718      2.448282     -0.878187
  C      -3.106940     -0.731398      0.427916
  H      -2.009911      0.981085      1.089117
  H      -4.012134     -0.479921      0.978419
  H      -3.406680     -1.230173     -0.494747
  H      -2.543765     -1.435751      1.038582
  C      -0.853917      0.380706     -1.776731
  C       0.501731      0.127061     -2.220228
  H      -1.623558      0.739789     -2.453940
  C       1.598872      0.536018     -1.470271
  C       2.807756      0.071648     -2.067717
  S       0.936374     -0.761227     -3.611579
  C       2.602609     -0.635750     -3.209209
  H       1.514756      1.451830     -0.764806
  H       3.791379      0.306735     -1.687901
  H       3.343737     -1.069880     -3.863115
  H      -0.834144     -3.155632     -0.193713
  H      -0.629833     -2.395277      2.410767
  H       1.911718     -1.595047      2.831918
  O       1.359170      2.471110      0.324626
  O       0.525809      0.896596      1.663705
  C       0.910577      2.105507      1.404438
  C       0.802254      3.050731      2.569612
  H       0.786963      4.081431      2.225781
  H       1.674986      2.926083      3.213553
  H      -0.077287      2.847606      3.177176
  H       3.265047     -1.868111      0.540130
  H       1.566244     -2.829726     -1.338198
39
Coordinates from ORCA-job reaction4-IEIP_ts_guess_scan_3-0_orca E -1288.399631726814
  Ir      0.601432     -0.719692      0.428330
  C       0.041980     -2.803202      0.322121
  C       0.140335     -2.353076      1.689941
  C       2.213944     -2.136494      0.714093
  C       1.300270     -2.644778     -0.284525
  C       1.510791     -1.996679      1.923151
  N      -1.045683      0.187161     -0.526201
  C      -2.307677      0.530599      0.144456
  C      -3.132143      1.561720     -0.608203
  H      -3.960470      1.878680      0.023853
  H      -3.573973      1.165797     -1.524228
  H      -2.552730      2.452921     -0.851703
  C      -3.103809     -0.740309      0.413364
  H      -2.003233      0.959668      1.100567
  H      -4.010421     -0.492175      0.963038
  H      -3.401420     -1.226397     -0.516734
  H      -2.545872     -1.454319      1.017623
  C      -0.838183      0.397116     -1.767348
  C       0.517051      0.148703     -2.219469
  H      -1.605486      0.774292     -2.437332
  C       1.620017      0.515084     -1.454692
  C       2.823976      0.069313     -2.076731
  S       0.942005     -0.686033     -3.646395
  C       2.610659     -0.585890     -3.247001
  H       1.549180      1.400139     -0.709785
  H       3.810349      0.280607     -1.690132
  H       3.346664     -0.996129     -3.921743
  H      -0.854185     -3.164000     -0.161904
  H      -0.639713     -2.385666      2.436413
  H       1.909021     -1.604042      2.847727
  O       1.225626      2.492124      0.266371
  O       0.542809      0.892657      1.661612
  C       0.867431      2.113099      1.374912
  C       0.796779      3.059894      2.541727
  H       0.718150      4.087217      2.196488
  H       1.713435      2.973616      3.128337
  H      -0.032967      2.825405      3.205405
  H       3.257568     -1.908081      0.557012
  H       1.547863     -2.869663     -1.311674
39
Coordinates from ORCA-job reaction4-IEIP_ts_guess_scan_3-0_orca E -1288.398933400846
  Ir      0.586551     -0.716476      0.435398
  C       0.028574     -2.800297      0.352431
  C       0.123517     -2.333836      1.714714
  C       2.199034     -2.127739      0.740650
  C       1.288003     -2.648519     -0.253576
  C       1.492984     -1.974087      1.946505
  N      -1.053985      0.173297     -0.532954
  C      -2.320623      0.511366      0.133074
  C      -3.150116      1.536790     -0.622005
  H      -3.981413      1.849422      0.008341
  H      -3.588284      1.137318     -1.538199
  H      -2.575657      2.431215     -0.865374
  C      -3.110754     -0.763283      0.402423
  H      -2.021489      0.943611      1.089391
  H      -4.020126     -0.519162      0.949396
  H      -3.403303     -1.252693     -0.527522
  H      -2.550447     -1.473095      1.009294
  C      -0.846107      0.382542     -1.773480
  C       0.509338      0.146964     -2.231815
  H      -1.615486      0.758993     -2.441221
  C       1.612570      0.493694     -1.459525
  C       2.819198      0.089476     -2.103832
  S       0.936717     -0.623608     -3.693183
  C       2.607349     -0.513289     -3.302479
  H       1.527729      1.322375     -0.655411
  H       3.804691      0.287503     -1.707949
  H       3.344106     -0.888441     -3.996680
  H      -0.866428     -3.167026     -0.129278
  H      -0.658357     -2.357250      2.459597
  H       1.888881     -1.569953      2.867124
  O       1.422094      2.462646      0.313414
  O       0.528402      0.911024      1.648677
  C       0.943660      2.109962      1.385210
  C       0.835265      3.064256      2.542734
  H       0.848785      4.092933      2.192851
  H       1.693235      2.924443      3.203184
  H      -0.059445      2.883932      3.135210
  H       3.242918     -1.900444      0.583153
  H       1.537790     -2.885374     -1.277549
39
Coordinates from ORCA-job reaction4-IEIP_ts_guess_scan_3-0_orca E -1288.399675936379
  Ir      0.595386     -0.713965      0.429481
  C       0.040478     -2.798040      0.327596
  C       0.135178     -2.344506      1.694231
  C       2.210091     -2.125824      0.721253
  C       1.299502     -2.638516     -0.277634
  C       1.504126     -1.984492      1.928739
  N      -1.047552      0.184692     -0.527621
  C      -2.312499      0.522727      0.141579
  C      -3.140482      1.553323     -0.608130
  H      -3.970297      1.865176      0.024542
  H      -3.580644      1.158842     -1.525533
  H      -2.564305      2.447499     -0.848352
  C      -3.105471     -0.751110      0.406382
  H      -2.011041      0.950213      1.099341
  H      -4.013588     -0.507047      0.955460
  H      -3.400350     -1.235793     -0.525306
  H      -2.546253     -1.464896      1.009545
  C      -0.839634      0.395728     -1.768102
  C       0.514474      0.150108     -2.223891
  H      -1.608412      0.770523     -2.437472
  C       1.619277      0.508779     -1.458509
  C       2.822098      0.064968     -2.083322
  S       0.937608     -0.663760     -3.662644
  C       2.606772     -0.574937     -3.261762
  H       1.550177      1.381625     -0.698332
  H       3.808801      0.264198     -1.691133
  H       3.341174     -0.982767     -3.939748
  H      -0.854116     -3.161613     -0.157244
  H      -0.646312     -2.376356      2.439186
  H       1.899747     -1.588388      2.852948
  O       1.289599      2.486509      0.282143
  O       0.533131      0.900794      1.657329
  C       0.890398      2.114328      1.379215
  C       0.809905      3.061758      2.544704
  H       0.763801      4.090801      2.198747
  H       1.708243      2.954343      3.155656
  H      -0.042562      2.845552      3.185444
  H       3.253635     -1.895734      0.565759
  H       1.549287     -2.865551     -1.303805
39
Coordinates from ORCA-job reaction4-IEIP_ts_guess_scan_3-0_orca E -1288.399679341802
  Ir      0.598606     -0.718155      0.431224
  C       0.038996     -2.801447      0.331581
  C       0.133340     -2.346885      1.697827
  C       2.209813     -2.133918      0.726717
  C       1.298995     -2.645649     -0.272584
  C       1.502813     -1.989413      1.933192
  N      -1.045660      0.183875     -0.528086
  C      -2.310017      0.523512      0.141247
  C      -3.135567      1.556309     -0.608033
  H      -3.964985      1.869327      0.024572
  H      -3.576151      1.163505     -1.525960
  H      -2.557490      2.449508     -0.847313
  C      -3.105582     -0.749069      0.404416
  H      -2.008036      0.949659      1.099432
  H      -4.013470     -0.503703      0.953250
  H      -3.400935     -1.232293     -0.527881
  H      -2.548090     -1.464541      1.007152
  C      -0.839786      0.392673     -1.769471
  C       0.513797      0.148390     -2.225614
  H      -1.609742      0.765815     -2.438539
  C       1.616763      0.507543     -1.457951
  C       2.821289      0.073512     -2.086285
  S       0.938461     -0.673468     -3.659052
  C       2.608165     -0.565369     -3.265789
  H       1.544988      1.385574     -0.703262
  H       3.807379      0.281441     -1.697128
  H       3.344078     -0.964269     -3.947423
  H      -0.855893     -3.163527     -0.153858
  H      -0.648946     -2.376266      2.442043
  H       1.898422     -1.593143      2.857343
  O       1.271453      2.488175      0.276253
  O       0.537522      0.898507      1.659235
  C       0.885407      2.113754      1.377380
  C       0.810413      3.061347      2.543084
  H       0.754754      4.089938      2.197202
  H       1.715252      2.959587      3.145361
  H      -0.034477      2.840291      3.192164
  H       3.254195     -1.906960      0.572399
  H       1.549296     -2.874974     -1.298105
39
Coordinates from ORCA-job reaction4-IEIP_ts_guess_scan_3-0_orca E -1288.399692738930
  Ir      0.598283     -0.716919      0.430817
  C       0.040202     -2.800361      0.330641
  C       0.133949     -2.346072      1.696955
  C       2.210455     -2.131384      0.726163
  C       1.300194     -2.643559     -0.273374
  C       1.503071     -1.987630      1.932555
  N      -1.045695      0.183585     -0.528055
  C      -2.310173      0.522295      0.141701
  C      -3.135742      1.556312     -0.605907
  H      -3.964959      1.868535      0.027363
  H      -3.576664      1.164981     -1.524293
  H      -2.557558      2.449754     -0.844006
  C      -3.105908     -0.750592      0.402968
  H      -2.008255      0.947030      1.100525
  H      -4.013825     -0.505935      0.952075
  H      -3.401206     -1.232447     -0.530053
  H      -2.548552     -1.467009      1.004705
  C      -0.840346      0.392811     -1.769384
  C       0.513096      0.149888     -2.226593
  H      -1.610846      0.765856     -2.437865
  C       1.616239      0.508143     -1.458878
  C       2.820587      0.070407     -2.084799
  S       0.938304     -0.663892     -3.664271
  C       2.607244     -0.569271     -3.263890
  H       1.544846      1.384497     -0.702000
  H       3.806593      0.273038     -1.692646
  H       3.342841     -0.972938     -3.943063
  H      -0.854353     -3.162888     -0.155085
  H      -0.648505     -2.375967      2.440966
  H       1.898231     -1.591170      2.856818
  O       1.273786      2.488754      0.276337
  O       0.536883      0.899420      1.658517
  C       0.885801      2.114414      1.376872
  C       0.810453      3.062035      2.542524
  H       0.756056      4.090699      2.196666
  H       1.714596      2.959407      3.145708
  H      -0.035286      2.841674      3.190745
  H       3.254746     -1.903741      0.572177
  H       1.550785     -2.872567     -1.298899
39
Coordinates from ORCA-job reaction4-IEIP_ts_guess_scan_3-0_orca E -1288.399695846463
  Ir      0.597474     -0.716057      0.431843
  C       0.040927     -2.799542      0.330194
  C       0.133250     -2.345910      1.696762
  C       2.210398     -2.129266      0.727601
  C       1.301293     -2.641591     -0.272865
  C       1.501885     -1.986590      1.933528
  N      -1.045206      0.182936     -0.527136
  C      -2.309918      0.521240      0.142598
  C      -3.134581      1.557234     -0.603345
  H      -3.963518      1.869157      0.030455
  H      -3.575942      1.167922     -1.522370
  H      -2.555539      2.450513     -0.839953
  C      -3.106628     -0.751581      0.401279
  H      -2.008223      0.944111      1.102302
  H      -4.014663     -0.507316      0.950378
  H      -3.401746     -1.231628     -0.532726
  H      -2.550017     -1.469442      1.002004
  C      -0.840138      0.391553     -1.768581
  C       0.512942      0.148437     -2.226767
  H      -1.611215      0.763535     -2.436967
  C       1.616635      0.505781     -1.459289
  C       2.820693      0.068224     -2.085693
  S       0.937639     -0.663326     -3.665559
  C       2.606854     -0.568270     -3.266481
  H       1.545564      1.381462     -0.701209
  H       3.806820      0.269509     -1.693175
  H       3.342062     -0.970624     -3.946857
  H      -0.853001     -3.162330     -0.156494
  H      -0.649862     -2.376408      2.440048
  H       1.896043     -1.590173      2.858239
  O       1.276205      2.486716      0.276472
  O       0.535663      0.899616      1.659079
  C       0.886309      2.113884      1.376881
  C       0.810028      3.062935      2.541338
  H       0.757048      4.091264      2.194277
  H       1.713197      2.960158      3.145964
  H      -0.036849      2.844035      3.188573
  H       3.254708     -1.900957      0.574690
  H       1.552777     -2.870024     -1.298296
