39
Generated by autodE on: 2023-08-13. E = -1288.395239 Ha
Ir    0.57146  -0.73453   0.48577
C     0.01767  -2.81229   0.34574
C     0.10665  -2.37381   1.71876
C     2.18634  -2.14843   0.76151
C     1.27907  -2.64328  -0.25012
C     1.47737  -2.02408   1.96783
N    -1.04062   0.17287  -0.50983
C    -2.31547   0.51324   0.14176
C    -3.13260   1.54372  -0.62023
H    -3.96791   1.85989   0.00297
H    -3.56445   1.14773  -1.54081
H    -2.55134   2.43523  -0.85794
C    -3.11452  -0.75843   0.39842
H    -2.02772   0.94328   1.10274
H    -4.03188  -0.51142   0.93056
H    -3.39366  -1.24679  -0.53622
H    -2.56746  -1.47075   1.01451
C    -0.82342   0.37494  -1.75112
C     0.53031   0.14982  -2.21544
H    -1.59757   0.73374  -2.42367
C     1.64241   0.56571  -1.49474
C     2.83917   0.14484  -2.14198
S     0.93944  -0.67683  -3.65686
C     2.61283  -0.52492  -3.30351
H     1.54968   1.41977  -0.68696
H     3.83014   0.37921  -1.78120
H     3.34250  -0.92294  -3.99245
H    -0.87521  -3.16739  -0.14842
H    -0.67953  -2.41334   2.45866
H     1.86996  -1.64432   2.90014
O     1.29098   2.44435   0.27435
O     0.54027   0.89351   1.69280
C     0.90155   2.09732   1.38534
C     0.84365   3.07212   2.52791
H     0.79381   4.09280   2.15858
H     1.75290   2.97674   3.12467
H     0.00254   2.87269   3.18867
H     3.22936  -1.91199   0.61071
H     1.53266  -2.84878  -1.28014
