! Opt PBEh-3c
%geom Constraints
{ B 0 20 2.428571428571429 C }
{ B 24 30 1.4285714285714286 C }
    end
end
%output 
xyzfile=True 
end 
%scf 
maxiter 250 
end
%output
Print[P_Hirshfeld] = 1
end
% maxcore
4000
*xyz 1 1
Ir   0.59091327  -0.72089685   0.45710275 
C    0.03720098  -2.80367925   0.34790077 
C    0.11279818  -2.35352988   1.71603372 
C    2.20176736  -2.13244058   0.77163906 
C    1.30433038  -2.64254848  -0.24059221 
C    1.47809657  -1.99236834   1.96912383 
N   -1.04494638   0.16714291  -0.52044332 
C   -2.31579157   0.49251303   0.14577635 
C   -3.12596267   1.55681804  -0.57663723 
H   -3.95509003   1.86052057   0.06098014 
H   -3.56677663   1.19804061  -1.50816475 
H   -2.53547205   2.44922043  -0.78644575 
C   -3.12312929  -0.78246263   0.35697822 
H   -2.02341722   0.88494115   1.12113704 
H   -4.03667886  -0.54959682   0.90194264 
H   -3.40876840  -1.23308911  -0.59444363 
H   -2.57761780  -1.52124912   0.94238238 
C   -0.84585193   0.37582504  -1.76428209 
C    0.50409324   0.15648227  -2.23480365 
H   -1.62814969   0.73454624  -2.42701777 
C    1.60427904   0.48227237  -1.44905381 
C    2.80992235   0.07485471  -2.08994569 
S    0.93409972  -0.58656116  -3.70876608 
C    2.60049336  -0.50717975  -3.30056488 
H    1.53294169   1.36817905  -0.66627332 
H    3.79528316   0.25831614  -1.68682615 
H    3.33845875  -0.87590013  -3.99689904 
H   -0.85026071  -3.16600378  -0.15085574 
H   -0.67940742  -2.38631370   2.44946009 
H    1.86128602  -1.59819742   2.89939251 
O    1.31870699   2.45580009   0.25731788 
O    0.53446427   0.91374462   1.66525275 
C    0.91190588   2.11166942   1.36466456 
C    0.85320892   3.08912344   2.50496105 
H    0.81250725   4.10975516   2.13444842 
H    1.75817615   2.98817246   3.10731961 
H    0.00661355   2.89561875   3.16039754 
H    3.24802569  -1.90435912   0.63240288 
H    1.56711793  -2.86799032  -1.26385902 
*
