! Opt PBEh-3c
%geom Constraints
{ B 0 20 2.3857142857142857 C }
{ B 24 30 1.3571428571428572 C }
    end
end
%output 
xyzfile=True 
end 
%scf 
maxiter 250 
end
%output
Print[P_Hirshfeld] = 1
end
% maxcore
4000
*xyz 1 1
Ir   0.59385342  -0.72951425   0.48469690 
C    0.05629789  -2.81803859   0.37011028 
C    0.04161718  -2.35857743   1.73572865 
C    2.18829690  -2.12874072   0.92358642 
C    1.35894674  -2.65459165  -0.13667593 
C    1.38283335  -1.98161775   2.06918059 
N   -1.04059952   0.13816960  -0.50874285 
C   -2.31880285   0.42371821   0.16446560 
C   -3.10199025   1.56048196  -0.47429670 
H   -3.93262032   1.82689280   0.17790128 
H   -3.53863817   1.28761914  -1.43605070 
H   -2.49109292   2.45390877  -0.60535350 
C   -3.14776455  -0.85263011   0.24840441 
H   -2.04055822   0.72514413   1.17545215 
H   -4.06373475  -0.66011824   0.80517497 
H   -3.42936818  -1.20737814  -0.74391401 
H   -2.61654544  -1.65204476   0.76279835 
C   -0.86168814   0.37040990  -1.75415132 
C    0.47545238   0.18913233  -2.25997504 
H   -1.66544327   0.72468659  -2.39325566 
C    1.57741269   0.38436546  -1.43619934 
C    2.77585199   0.03836383  -2.12169474 
S    0.89515975  -0.35463302  -3.82033908 
C    2.55839003  -0.36776227  -3.40287507 
H    1.54762568   1.30760489  -0.61556588 
H    3.76431393   0.14177800  -1.69824310 
H    3.29224007  -0.65397361  -4.14111307 
H   -0.79294042  -3.19476122  -0.18159863 
H   -0.79529823  -2.39179309   2.41743910 
H    1.70144144  -1.57404733   3.01804175 
O    1.43828013   2.39677978   0.21060476 
O    0.54051237   0.94856509   1.64745240 
C    0.97631048   2.11102847   1.32076025 
C    0.92846758   3.14402120   2.40911117 
H    0.88803204   4.14576699   1.98993924 
H    1.84003671   3.07064195   3.00551397 
H    0.08688771   2.98322322   3.07894979 
H    3.24231610  -1.90549205   0.85504127 
H    1.68587867  -2.88739804  -1.13956854 
*
