! Opt PBEh-3c
%geom Constraints
{ B 0 20 2.3 C }
{ B 24 30 1.342857142857143 C }
    end
end
%output 
xyzfile=True 
end 
%scf 
maxiter 250 
end
%output
Print[P_Hirshfeld] = 1
end
% maxcore
4000
*xyz 1 1
Ir   0.60610132  -0.73285709   0.47858078 
C    0.10139445  -2.83207489   0.35312672 
C   -0.02286579  -2.37099714   1.71228378 
C    2.17821328  -2.10739897   1.06141675 
C    1.43971421  -2.65714978  -0.04973165 
C    1.27733635  -1.96352480   2.13888040 
N   -1.04324360   0.12325779  -0.50220536 
C   -2.32044327   0.37471853   0.18640595 
C   -3.09473758   1.55772587  -0.37676951 
H   -3.92533353   1.78510282   0.28999024 
H   -3.52988886   1.35319864  -1.35584604 
H   -2.47727965   2.45344369  -0.44684004 
C   -3.15968209  -0.89784797   0.18037404 
H   -2.04462491   0.60811017   1.21568554 
H   -4.06989356  -0.74374872   0.75834824 
H   -3.45163609  -1.17233906  -0.83414939 
H   -2.62974497  -1.73974641   0.62332401 
C   -0.88202215   0.39148308  -1.74417865 
C    0.44353864   0.22220470  -2.27359081 
H   -1.69585975   0.76367798  -2.35966763 
C    1.54082202   0.26835524  -1.42216924 
C    2.73418192  -0.03310651  -2.13735297 
S    0.85961760  -0.14115692  -3.88410964 
C    2.51543519  -0.26597300  -3.46181028 
H    1.58167715   1.23372620  -0.60037362 
H    3.72149764  -0.02031431  -1.69913196 
H    3.24658253  -0.48390774  -4.22550689 
H   -0.69513261  -3.22998236  -0.25880909 
H   -0.90756451  -2.41286779   2.32986030 
H    1.51454139  -1.54058786   3.10491131 
O    1.56058268   2.34776932   0.17441646 
O    0.55041438   0.97768253   1.61034542 
C    1.03765782   2.11067441   1.27418012 
C    0.98365466   3.18649499   2.31888988 
H    0.92292036   4.16921879   1.85844238 
H    1.90452957   3.15475200   2.90434329 
H    0.15161955   3.03992031   3.00299122 
H    3.23375587  -1.88334596   1.07959904 
H    1.84353431  -2.89339972  -1.02341295 
*
