39
Coordinates from ORCA-job reaction4-IEIP_ts_guess_scan_4-9_orca E -1288.397116705265
  Ir      0.585040     -0.723913      0.467034
  C       0.032689     -2.806003      0.357200
  C       0.094180     -2.356584      1.725531
  C       2.193486     -2.134248      0.801636
  C       1.305836     -2.644013     -0.219239
  C       1.456364     -1.993447      1.991305
  N      -1.049536      0.154543     -0.517314
  C      -2.325360      0.463766      0.148950
  C      -3.129190      1.549642     -0.548858
  H      -3.959010      1.840866      0.093707
  H      -3.568901      1.216531     -1.490274
  H      -2.533899      2.444029     -0.734963
  C      -3.137827     -0.814178      0.319677
  H      -2.040547      0.829383      1.136924
  H      -4.056042     -0.593780      0.862103
  H      -3.415339     -1.239243     -0.645808
  H      -2.599182     -1.569448      0.890071
  C      -0.853682      0.369998     -1.760471
  C       0.494515      0.169296     -2.232281
  H      -1.641724      0.722445     -2.419876
  C       1.584867      0.441356     -1.414575
  C       2.795261      0.063117     -2.061852
  S       0.938473     -0.481776     -3.745649
  C       2.598076     -0.440103     -3.311023
  H       1.515912      1.344859     -0.602465
  H       3.777188      0.211858     -1.636383
  H       3.343581     -0.769902     -4.018940
  H      -0.849011     -3.169338     -0.150976
  H      -0.705381     -2.390416      2.450825
  H       1.829993     -1.599197      2.925462
  O       1.370192      2.427813      0.226264
  O       0.539550      0.930928      1.655417
  C       0.944784      2.110862      1.339503
  C       0.903020      3.115970      2.454627
  H       0.864065      4.127855      2.060609
  H       1.814782      3.024464      3.048310
  H       0.062620      2.941471      3.122925
  H       3.241468     -1.907505      0.673788
  H       1.578056     -2.868768     -1.240180
39
Coordinates from ORCA-job reaction4-IEIP_ts_guess_scan_4-9_orca E -1288.393983994735
  Ir      0.590485     -0.702453      0.454148
  C       0.065023     -2.790924      0.308163
  C       0.111607     -2.364602      1.684120
  C       2.213842     -2.099032      0.778457
  C       1.339771     -2.603312     -0.256614
  C       1.466648     -1.987106      1.964966
  N      -1.057487      0.168580     -0.521632
  C      -2.328374      0.484519      0.149556
  C      -3.140066      1.556564     -0.560323
  H      -3.966565      1.855832      0.082811
  H      -3.584671      1.206730     -1.493356
  H      -2.548669      2.449498     -0.764945
  C      -3.135120     -0.793185      0.346708
  H      -2.036948      0.866536      1.129367
  H      -4.049632     -0.567394      0.893133
  H      -3.418974     -1.234110     -0.609766
  H      -2.589054     -1.537650      0.924281
  C      -0.871467      0.358988     -1.771009
  C       0.476117      0.146504     -2.238278
  H      -1.664020      0.690061     -2.436021
  C       1.561816      0.475523     -1.434462
  C       2.773842      0.050851     -2.050627
  S       0.924877     -0.600204     -3.704776
  C       2.581521     -0.538821     -3.261980
  H       1.496712      1.469865     -0.719779
  H       3.754730      0.233361     -1.636130
  H       3.330032     -0.915268     -3.942827
  H      -0.808341     -3.157411     -0.211968
  H      -0.691994     -2.421829      2.403362
  H       1.828707     -1.603655      2.908111
  O       1.463676      2.389528      0.297052
  O       0.509280      0.927163      1.672594
  C       0.962911      2.094235      1.385554
  C       0.888040      3.102878      2.495541
  H       0.902854      4.114631      2.099410
  H       1.760949      2.984921      3.140693
  H       0.005645      2.955604      3.114284
  H       3.259821     -1.857736      0.661900
  H       1.621848     -2.808489     -1.278976
39
Coordinates from ORCA-job reaction4-IEIP_ts_guess_scan_4-9_orca E -1288.397216497331
  Ir      0.587679     -0.721066      0.469935
  C       0.044322     -2.806947      0.350635
  C       0.096313     -2.364694      1.721357
  C       2.199620     -2.126871      0.809228
  C       1.320003     -2.636527     -0.218448
  C       1.454721     -1.994925      1.995448
  N      -1.048593      0.156371     -0.515304
  C      -2.322447      0.468595      0.151449
  C      -3.124422      1.553739     -0.549527
  H      -3.954323      1.847824      0.091607
  H      -3.563614      1.218553     -1.490484
  H      -2.527783      2.446813     -0.737689
  C      -3.135694     -0.808356      0.325270
  H      -2.036071      0.835700      1.138404
  H      -4.052885     -0.586437      0.868767
  H      -3.414963     -1.234618     -0.639172
  H      -2.596409     -1.563093      0.895872
  C      -0.854372      0.374372     -1.760050
  C       0.493427      0.174677     -2.238598
  H      -1.643541      0.731769     -2.415395
  C       1.587868      0.431428     -1.419335
  C       2.792904      0.043740     -2.073175
  S       0.928065     -0.477825     -3.753706
  C       2.588809     -0.453034     -3.323060
  H       1.539692      1.356654     -0.615523
  H       3.777476      0.183566     -1.650850
  H       3.329788     -0.786062     -4.034107
  H      -0.832807     -3.172540     -0.163773
  H      -0.706537     -2.406821      2.442451
  H       1.821303     -1.603196      2.933428
  O       1.358642      2.417897      0.234065
  O       0.524309      0.929527      1.665216
  C       0.933756      2.106702      1.350043
  C       0.889630      3.116757      2.460289
  H       0.851440      4.126995      2.061879
  H       1.800069      3.027924      3.056342
  H       0.047734      2.944881      3.127226
  H       3.247407     -1.895721      0.688625
  H       1.598854     -2.856564     -1.238600
39
Coordinates from ORCA-job reaction4-IEIP_ts_guess_scan_4-9_orca E -1288.395083282790
  Ir      0.574532     -0.730186      0.472674
  C       0.010228     -2.812773      0.403647
  C       0.069313     -2.339456      1.763313
  C       2.172923     -2.143268      0.842393
  C       1.286207     -2.668715     -0.171057
  C       1.431529     -1.976390      2.026272
  N      -1.061949      0.133993     -0.530733
  C      -2.339660      0.440144      0.132625
  C      -3.149472      1.517123     -0.572071
  H      -3.982050      1.806753      0.067642
  H      -3.585657      1.175855     -1.512203
  H      -2.559570      2.414199     -0.762428
  C      -3.143886     -0.842100      0.309918
  H      -2.057580      0.812484      1.118781
  H      -4.063067     -0.625243      0.852141
  H      -3.419315     -1.273355     -0.653400
  H      -2.599347     -1.591087      0.883083
  C      -0.871041      0.348879     -1.776327
  C       0.479226      0.178565     -2.255211
  H      -1.663431      0.703234     -2.429224
  C       1.562375      0.425614     -1.421066
  C       2.781285      0.115448     -2.089838
  S       0.934820     -0.394399     -3.795671
  C       2.594676     -0.325461     -3.363754
  H       1.470645      1.292534     -0.562818
  H       3.759979      0.265507     -1.657360
  H       3.346854     -0.597427     -4.088947
  H      -0.871496     -3.181508     -0.100602
  H      -0.732492     -2.356998      2.486583
  H       1.803605     -1.566365      2.954233
  O       1.609205      2.362576      0.283721
  O       0.529729      0.950531      1.634727
  C       1.042816      2.094836      1.347882
  C       0.963995      3.117952      2.443837
  H       1.038829      4.123679      2.039281
  H       1.802719      2.970469      3.127136
  H       0.050395      3.014776      3.025136
  H       3.222764     -1.925540      0.714617
  H       1.560736     -2.915688     -1.186193
39
Coordinates from ORCA-job reaction4-IEIP_ts_guess_scan_4-9_orca E -1288.397301119683
  Ir      0.581282     -0.718479      0.472214
  C       0.031745     -2.803965      0.373340
  C       0.083604     -2.349345      1.739697
  C       2.188385     -2.125545      0.827278
  C       1.308422     -2.642655     -0.196188
  C       1.442369     -1.980075      2.011302
  N      -1.052845      0.152752     -0.518683
  C      -2.332260      0.451748      0.144419
  C      -3.140275      1.535542     -0.551835
  H      -3.974719      1.818700      0.088334
  H      -3.573696      1.203493     -1.496550
  H      -2.550067      2.434578     -0.731694
  C      -3.137051     -0.832156      0.306737
  H      -2.052779      0.814260      1.135021
  H      -4.057656     -0.620730      0.848697
  H      -3.409974     -1.253715     -0.661577
  H      -2.594062     -1.586858      0.873778
  C      -0.856023      0.380875     -1.761383
  C       0.490897      0.187522     -2.244047
  H      -1.646253      0.739325     -2.414659
  C       1.587174      0.422260     -1.421157
  C       2.790469      0.049376     -2.086150
  S       0.922157     -0.424095     -3.776758
  C       2.583513     -0.415000     -3.347980
  H       1.546125      1.332499     -0.598521
  H       3.775904      0.176381     -1.661728
  H       3.322761     -0.731065     -4.068469
  H      -0.845924     -3.171929     -0.138437
  H      -0.719963     -2.382705      2.460415
  H       1.809024     -1.580245      2.945840
  O       1.453039      2.403154      0.253447
  O       0.518911      0.944270      1.654407
  C       0.974426      2.107602      1.352221
  C       0.921523      3.121402      2.458382
  H       0.929317      4.131306      2.057424
  H       1.806398      3.005879      3.087425
  H       0.050830      2.977287      3.094177
  H       3.237067     -1.898913      0.705825
  H       1.587577     -2.873546     -1.213824
39
Coordinates from ORCA-job reaction4-IEIP_ts_guess_scan_4-9_orca E -1288.397331920077
  Ir      0.588509     -0.726056      0.471741
  C       0.027135     -2.809034      0.378173
  C       0.079246     -2.351797      1.743395
  C       2.186785     -2.141699      0.833749
  C       1.305528     -2.656296     -0.189819
  C       1.439412     -1.988849      2.016030
  N      -1.047181      0.151768     -0.520746
  C      -2.325263      0.452832      0.144421
  C      -3.132049      1.539500     -0.548739
  H      -3.964993      1.823181      0.093144
  H      -3.567582      1.210012     -1.493366
  H      -2.540376      2.437708     -0.727802
  C      -3.133445     -0.829129      0.305855
  H      -2.043787      0.813309      1.135263
  H      -4.052958     -0.615909      0.848993
  H      -3.408476     -1.248668     -0.662736
  H      -2.592039     -1.585991      0.871306
  C      -0.853985      0.377669     -1.764595
  C       0.491749      0.187407     -2.247291
  H      -1.645489      0.735396     -2.416728
  C       1.583465      0.424987     -1.421172
  C       2.790135      0.058651     -2.083262
  S       0.927704     -0.425763     -3.777704
  C       2.588372     -0.403867     -3.346958
  H       1.538023      1.348474     -0.610638
  H       3.773975      0.191857     -1.657017
  H       3.330985     -0.713551     -4.066725
  H      -0.851643     -3.173440     -0.134203
  H      -0.725591     -2.379331      2.462939
  H       1.806688     -1.588701      2.950186
  O       1.399350      2.422021      0.231432
  O       0.531954      0.939288      1.653427
  C       0.955599      2.111989      1.341404
  C       0.920350      3.119608      2.453670
  H       0.898022      4.131409      2.058074
  H       1.826501      3.016450      3.053913
  H       0.072741      2.957173      3.115707
  H       3.237058     -1.921843      0.713761
  H       1.584943     -2.891577     -1.206339
39
Coordinates from ORCA-job reaction4-IEIP_ts_guess_scan_4-9_orca E -1288.397364104045
  Ir      0.588262     -0.726047      0.473212
  C       0.029186     -2.809117      0.378603
  C       0.078108     -2.352212      1.743898
  C       2.187266     -2.139765      0.838119
  C       1.308589     -2.655049     -0.187127
  C       1.437198     -1.987701      2.018984
  N      -1.045850      0.149570     -0.519413
  C      -2.323319      0.451460      0.146585
  C      -3.128194      1.540863     -0.544474
  H      -3.960299      1.825140      0.098230
  H      -3.564787      1.213806     -1.489450
  H      -2.534778      2.438164     -0.722303
  C      -3.134348     -0.828990      0.306142
  H      -2.041035      0.809905      1.137956
  H      -4.053524     -0.614481      0.849340
  H      -3.410081     -1.246627     -0.663073
  H      -2.594857     -1.587812      0.870707
  C      -0.853471      0.376869     -1.763124
  C       0.491554      0.187673     -2.248897
  H      -1.645820      0.735974     -2.413506
  C       1.584895      0.418290     -1.422882
  C       2.790554      0.054602     -2.088342
  S       0.925842     -0.407860     -3.786518
  C       2.586493     -0.399523     -3.354775
  H       1.541266      1.339166     -0.607934
  H       3.774905      0.180111     -1.660986
  H       3.327609     -0.708290     -4.076494
  H      -0.848178     -3.174295     -0.135619
  H      -0.728160     -2.380396      2.461789
  H       1.802182     -1.587066      2.953832
  O       1.411502      2.413890      0.234056
  O       0.529836      0.937712      1.653282
  C       0.960809      2.107535      1.342482
  C       0.913737      3.120619      2.449435
  H       0.894329      4.130549      2.048937
  H       1.814232      3.021035      3.058723
  H       0.059956      2.960553      3.104096
  H       3.237613     -1.919049      0.720371
  H       1.590148     -2.890016     -1.203120
39
Coordinates from ORCA-job reaction4-IEIP_ts_guess_scan_4-9_orca E -1288.397385780278
  Ir      0.586561     -0.725751      0.477104
  C       0.029910     -2.808986      0.381811
  C       0.073278     -2.351670      1.747003
  C       2.185746     -2.137442      0.848601
  C       1.311393     -2.654095     -0.179504
  C       1.430786     -1.985408      2.026614
  N      -1.044959      0.146861     -0.517863
  C      -2.323101      0.447061      0.147781
  C      -3.126157      1.540065     -0.539833
  H      -3.958435      1.822877      0.103301
  H      -3.562428      1.217089     -1.486343
  H      -2.531510      2.437301     -0.713845
  C      -3.135972     -0.832971      0.301424
  H      -2.041865      0.801494      1.140858
  H      -4.055798     -0.619249      0.843818
  H      -3.410572     -1.246800     -0.669741
  H      -2.598469     -1.594577      0.864161
  C      -0.852984      0.376472     -1.761362
  C       0.490840      0.188204     -2.251259
  H      -1.646820      0.735349     -2.410061
  C       1.586245      0.406978     -1.424348
  C       2.790724      0.050647     -2.095763
  S       0.922452     -0.389909     -3.796023
  C       2.584158     -0.384824     -3.368420
  H       1.544966      1.325498     -0.604340
  H       3.775785      0.168597     -1.668001
  H       3.323785     -0.684468     -4.095500
  H      -0.845119     -3.175249     -0.135633
  H      -0.735699     -2.379930      2.461807
  H       1.791844     -1.583683      2.962534
  O       1.426596      2.402586      0.236307
  O       0.526539      0.938769      1.654907
  C       0.963655      2.105088      1.342369
  C       0.915987      3.123745      2.444328
  H       0.904454      4.131889      2.039127
  H       1.812564      3.022045      3.059072
  H       0.057706      2.971395      3.094929
  H       3.236441     -1.916227      0.734995
  H       1.596841     -2.889581     -1.194274
39
Coordinates from ORCA-job reaction4-IEIP_ts_guess_scan_4-9_orca E -1288.397397108920
  Ir      0.587565     -0.727740      0.480232
  C       0.028431     -2.810308      0.387089
  C       0.067264     -2.350885      1.751610
  C       2.183667     -2.141019      0.860584
  C       1.312372     -2.658412     -0.169754
  C       1.424078     -1.985648      2.035365
  N      -1.042920      0.144801     -0.517389
  C      -2.322057      0.440864      0.148734
  C      -3.123838      1.539568     -0.531517
  H      -3.956309      1.818349      0.113136
  H      -3.559838      1.223798     -1.480551
  H      -2.528329      2.437515     -0.698711
  C      -3.136137     -0.839643      0.291698
  H      -2.042316      0.787820      1.144822
  H      -4.056775     -0.629127      0.833973
  H      -3.409291     -1.246256     -0.682912
  H      -2.600266     -1.605831      0.849790
  C      -0.852617      0.378206     -1.760730
  C       0.489471      0.193506     -2.254973
  H      -1.648690      0.736605     -2.406905
  C       1.585424      0.399215     -1.425603
  C       2.789284      0.048035     -2.100033
  S       0.920526     -0.363047     -3.807535
  C       2.581665     -0.370526     -3.378427
  H       1.546331      1.318387     -0.603547
  H       3.774410      0.156410     -1.670007
  H       3.320659     -0.663576     -4.108808
  H      -0.845003     -3.176424     -0.133192
  H      -0.744512     -2.376499      2.463321
  H       1.782114     -1.582496      2.971856
  O       1.432295      2.399647      0.232330
  O       0.530929      0.941160      1.655590
  C       0.968719      2.105820      1.339501
  C       0.920060      3.129488      2.436718
  H       0.906464      4.135784      2.027066
  H       1.817426      3.032026      3.050983
  H       0.062627      2.978476      3.088747
  H       3.235296     -1.922234      0.751095
  H       1.601191     -2.896620     -1.182908
39
Coordinates from ORCA-job reaction4-IEIP_ts_guess_scan_4-9_orca E -1288.397401361411
  Ir      0.588943     -0.729698      0.482595
  C       0.029280     -2.812123      0.389123
  C       0.062465     -2.351624      1.753446
  C       2.182965     -2.143446      0.871387
  C       1.315720     -2.661314     -0.162189
  C       1.418184     -1.986609      2.042607
  N      -1.040689      0.143216     -0.516865
  C      -2.319858      0.437711      0.150314
  C      -3.119470      1.541929     -0.523696
  H      -3.951222      1.818881      0.122670
  H      -3.556344      1.232291     -1.474317
  H      -2.521966      2.439387     -0.686109
  C      -3.136266     -0.842236      0.285077
  H      -2.040339      0.778318      1.148673
  H      -4.057040     -0.633403      0.827818
  H      -3.409256     -1.242700     -0.692123
  H      -2.602172     -1.612672      0.838936
  C      -0.852467      0.377508     -1.760509
  C       0.488024      0.195149     -2.257527
  H      -1.650421      0.734937     -2.404904
  C       1.584287      0.393334     -1.426868
  C       2.787680      0.047231     -2.103842
  S       0.918288     -0.351725     -3.813729
  C       2.579234     -0.361443     -3.385565
  H       1.546289      1.314814     -0.605249
  H       3.773069      0.152624     -1.673719
  H       3.317961     -0.648165     -4.118719
  H      -0.841828     -3.178590     -0.134762
  H      -0.752445     -2.376074      2.461616
  H       1.772349     -1.582623      2.980221
  O       1.429570      2.398734      0.226804
  O       0.533738      0.941115      1.655337
  C       0.969422      2.105551      1.335860
  C       0.920750      3.131901      2.430428
  H       0.901654      4.137039      2.018157
  H       1.820873      3.039576      3.041411
  H       0.066402      2.979113      3.086046
  H       3.235331     -1.925933      0.766745
  H       1.608675     -2.900792     -1.173839
39
Coordinates from ORCA-job reaction4-IEIP_ts_guess_scan_4-9_orca E -1288.397399577751
  Ir      0.589127     -0.729822      0.483526
  C       0.031421     -2.812904      0.388868
  C       0.059577     -2.351733      1.753179
  C       2.183061     -2.142307      0.878530
  C       1.319639     -2.661238     -0.157783
  C       1.414030     -1.985681      2.046937
  N      -1.040400      0.142280     -0.516448
  C      -2.319770      0.435000      0.151346
  C      -3.117708      1.543317     -0.517992
  H      -3.949175      1.818677      0.129414
  H      -3.554805      1.238330     -1.469990
  H      -2.518703      2.440444     -0.676512
  C      -3.137334     -0.844961      0.279107
  H      -2.040809      0.770480      1.151579
  H      -4.058315     -0.638301      0.822367
  H      -3.410007     -1.240265     -0.700283
  H      -2.604063     -1.618691      0.829138
  C      -0.853466      0.376838     -1.760310
  C       0.486302      0.196268     -2.258568
  H      -1.652638      0.733315     -2.403750
  C       1.583005      0.391411     -1.427757
  C       2.785861      0.046022     -2.105427
  S       0.916263     -0.345086     -3.816918
  C       2.576653     -0.359678     -3.388151
  H       1.546031      1.313775     -0.606281
  H       3.771480      0.149221     -1.675299
  H       3.315039     -0.645473     -4.122023
  H      -0.837370     -3.180622     -0.137955
  H      -0.757790     -2.376449      2.458517
  H       1.764625     -1.581004      2.985601
  O       1.428983      2.399345      0.223571
  O       0.534134      0.942703      1.654311
  C       0.968564      2.107170      1.332820
  C       0.924012      3.133530      2.427495
  H       0.903282      4.138592      2.015105
  H       1.826517      3.041458      3.034999
  H       0.072188      2.980651      3.086325
  H       3.235741     -1.924522      0.777794
  H       1.616188     -2.900900     -1.168344
39
Coordinates from ORCA-job reaction4-IEIP_ts_guess_scan_4-9_orca E -1288.397402044469
  Ir      0.589128     -0.729518      0.484067
  C       0.034361     -2.813604      0.387093
  C       0.057324     -2.352251      1.751588
  C       2.183624     -2.140215      0.884483
  C       1.324248     -2.660159     -0.154748
  C       1.410337     -1.984843      2.050181
  N      -1.040688      0.141850     -0.515394
  C      -2.320205      0.432945      0.152911
  C      -3.116042      1.545477     -0.511980
  H      -3.947340      1.819501      0.136202
  H      -3.553113      1.245154     -1.465451
  H      -2.515239      2.442079     -0.666522
  C      -3.138971     -0.846982      0.273458
  H      -2.041840      0.763155      1.155010
  H      -4.060000     -0.642732      0.817572
  H      -3.411609     -1.236730     -0.708168
  H      -2.606274     -1.624210      0.819140
  C      -0.854780      0.376032     -1.759544
  C       0.484548      0.195833     -2.258531
  H      -1.654876      0.731462     -2.402453
  C       1.582146      0.390187     -1.428558
  C       2.784211      0.044579     -2.107187
  S       0.913319     -0.346218     -3.817203
  C       2.573814     -0.359985     -3.390189
  H       1.546498      1.312823     -0.607239
  H       3.770319      0.147663     -1.678156
  H       3.311632     -0.645186     -4.124879
  H      -0.831951     -3.182836     -0.142735
  H      -0.762429     -2.378028      2.454124
  H       1.757160     -1.579808      2.990098
  O       1.431956      2.399019      0.222143
  O       0.534291      0.944506      1.653364
  C       0.970839      2.108185      1.331333
  C       0.926016      3.135446      2.425153
  H       0.904121      4.140096      2.011776
  H       1.829087      3.044876      3.032036
  H       0.074784      2.982379      3.084677
  H       3.236480     -1.921552      0.787653
  H       1.624487     -2.899199     -1.164386
39
Coordinates from ORCA-job reaction4-IEIP_ts_guess_scan_4-9_orca E -1288.397405479405
  Ir      0.589820     -0.728534      0.484670
  C       0.042771     -2.814997      0.381246
  C       0.052865     -2.353966      1.746253
  C       2.185865     -2.134329      0.897629
  C       1.336686     -2.656581     -0.148838
  C       1.402008     -1.982831      2.056778
  N      -1.041370      0.141016     -0.512811
  C      -2.320719      0.429582      0.156935
  C      -3.111407      1.551532     -0.498334
  H      -3.942114      1.823363      0.151515
  H      -3.548669      1.261379     -1.454813
  H      -2.506174      2.446518     -0.644520
  C      -3.142916     -0.849529      0.262593
  H      -2.042948      0.748420      1.162771
  H      -4.063223     -0.650044      0.809708
  H      -3.416930     -1.226725     -0.723552
  H      -2.611231     -1.634733      0.797854
  C      -0.857964      0.373423     -1.757740
  C       0.480695      0.193133     -2.258290
  H      -1.659784      0.727089     -2.399526
  C       1.580263      0.388288     -1.430973
  C       2.780726      0.042026     -2.111962
  S       0.906371     -0.352246     -3.817049
  C       2.567411     -0.364415     -3.394010
  H       1.547158      1.310938     -0.609934
  H       3.767975      0.146115     -1.685834
  H       3.303793     -0.650562     -4.129787
  H      -0.817420     -3.187830     -0.155955
  H      -0.772627     -2.383071      2.441923
  H       1.739296     -1.577131      2.999893
  O       1.436405      2.397858      0.219014
  O       0.534013      0.947083      1.650767
  C       0.973767      2.109507      1.327981
  C       0.928056      3.138241      2.420456
  H       0.902437      4.142188      2.005474
  H       1.832837      3.051547      3.025349
  H       0.078656      2.983720      3.081932
  H       3.238971     -1.913019      0.810267
  H       1.646018     -2.893235     -1.156338
39
Coordinates from ORCA-job reaction4-IEIP_ts_guess_scan_4-9_orca E -1288.397406288525
  Ir      0.590805     -0.728283      0.484724
  C       0.047967     -2.815909      0.377385
  C       0.049354     -2.355104      1.742579
  C       2.187030     -2.131211      0.906587
  C       1.344783     -2.654972     -0.144663
  C       1.395764     -1.981700      2.061151
  N      -1.041442      0.140176     -0.511099
  C      -2.320564      0.427154      0.159736
  C      -3.108030      1.555208     -0.489004
  H      -3.938510      1.825286      0.161865
  H      -3.545246      1.271877     -1.447515
  H      -2.500155      2.449302     -0.629415
  C      -3.145199     -0.851149      0.255991
  H      -2.042961      0.738624      1.167877
  H      -4.064495     -0.654722      0.805900
  H      -3.421024     -1.219701     -0.732919
  H      -2.613907     -1.641768      0.783679
  C      -0.859747      0.371908     -1.756385
  C       0.478474      0.191409     -2.258460
  H      -1.662542      0.725064     -2.397255
  C       1.579103      0.387179     -1.432819
  C       2.778697      0.040332     -2.115239
  S       0.902025     -0.354537     -3.817607
  C       2.563675     -0.366652     -3.396802
  H       1.547561      1.309785     -0.611886
  H       3.766537      0.144398     -1.690493
  H       3.299164     -0.653365     -4.133245
  H      -0.808236     -3.190698     -0.164791
  H      -0.780074     -2.386038      2.433481
  H       1.726495     -1.575355      3.006330
  O       1.438449      2.397397      0.216371
  O       0.534997      0.948393      1.649005
  C       0.975175      2.110389      1.325400
  C       0.928788      3.140303      2.416765
  H       0.899451      4.143689      2.000628
  H       1.835282      3.057101      3.019577
  H       0.081279      2.984202      3.080254
  H       3.240361     -1.908631      0.825665
  H       1.660284     -2.890191     -1.150612
39
Coordinates from ORCA-job reaction4-IEIP_ts_guess_scan_4-9_orca E -1288.397406734638
  Ir      0.592686     -0.728707      0.484816
  C       0.054134     -2.817324      0.372801
  C       0.044674     -2.357026      1.738175
  C       2.188307     -2.128623      0.918102
  C       1.354744     -2.654082     -0.139103
  C       1.387590     -1.981011      2.066756
  N      -1.041144      0.138846     -0.509201
  C      -2.319808      0.424397      0.163108
  C      -3.103545      1.559490     -0.477943
  H      -3.933914      1.827296      0.174005
  H      -3.540537      1.284238     -1.438871
  H      -2.492801      2.452671     -0.611379
  C      -3.147714     -0.852534      0.249006
  H      -2.042106      0.727557      1.173714
  H      -4.065212     -0.659303      0.803016
  H      -3.426697     -1.210689     -0.742837
  H      -2.616843     -1.649699      0.767233
  C      -0.861529      0.370348     -1.754747
  C       0.476053      0.189410     -2.259177
  H      -1.665287      0.723627     -2.394377
  C       1.577752      0.385365     -1.435196
  C       2.776471      0.038909     -2.119785
  S       0.896865     -0.355895     -3.819050
  C       2.559514     -0.368305     -3.400822
  H       1.547772      1.308119     -0.614353
  H       3.764904      0.142869     -1.696411
  H       3.293921     -0.655068     -4.138307
  H      -0.797240     -3.193970     -0.175650
  H      -0.789718     -2.389839      2.422992
  H       1.710097     -1.573762      3.014416
  O       1.439502      2.396728      0.212705
  O       0.537543      0.949140      1.647421
  C       0.976229      2.111065      1.322191
  C       0.928826      3.142873      2.411719
  H       0.893346      4.145324      1.993781
  H       1.838098      3.065276      3.011084
  H       0.084489      2.984192      3.078596
  H       3.241991     -1.905054      0.845326
  H       1.677957     -2.887658     -1.143014
39
Coordinates from ORCA-job reaction4-IEIP_ts_guess_scan_4-9_orca E -1288.397406953531
  Ir      0.593610     -0.729217      0.484732
  C       0.056013     -2.817865      0.370859
  C       0.042335     -2.358007      1.736342
  C       2.188403     -2.128420      0.922627
  C       1.358234     -2.654331     -0.136964
  C       1.383876     -1.981183      2.068839
  N      -1.040722      0.138248     -0.508677
  C      -2.319078      0.423549      0.164340
  C      -3.101982      1.560615     -0.474263
  H      -3.932453      1.827329      0.178011
  H      -3.538793      1.287877     -1.435978
  H      -2.490730      2.453786     -0.605382
  C      -3.148028     -0.852863      0.247604
  H      -2.041076      0.724483      1.175530
  H      -4.064446     -0.660519      0.803696
  H      -3.428871     -1.207619     -0.744931
  H      -2.617021     -1.652201      0.762354
  C      -0.861815      0.370120     -1.754185
  C       0.475431      0.188991     -2.259754
  H      -1.665732      0.723956     -2.393322
  C       1.577386      0.384575     -1.436104
  C       2.775853      0.038319     -2.121411
  S       0.895281     -0.355131     -3.820060
  C       2.558402     -0.368024     -3.402556
  H       1.547786      1.307626     -0.615376
  H       3.764366      0.141806     -1.698103
  H       3.292400     -0.654411     -4.140581
  H      -0.793598     -3.194767     -0.180150
  H      -0.794070     -2.391214      2.418682
  H       1.703199     -1.573584      3.017442
  O       1.439009      2.396714      0.210984
  O       0.539520      0.948943      1.647126
  C       0.976385      2.111160      1.320882
  C       0.928527      3.143884      2.409492
  H       0.889567      4.145825      1.990646
  H       1.839369      3.069320      3.006855
  H       0.086056      2.983714      3.078361
  H       3.242318     -1.904946      0.853174
  H       1.684459     -2.887349     -1.140038
39
Coordinates from ORCA-job reaction4-IEIP_ts_guess_scan_4-9_orca E -1288.397407633962
  Ir      0.593853     -0.729514      0.484697
  C       0.056298     -2.818039      0.370110
  C       0.041617     -2.358577      1.735729
  C       2.188297     -2.128741      0.923586
  C       1.358947     -2.654592     -0.136676
  C       1.382833     -1.981618      2.069181
  N      -1.040600      0.138170     -0.508743
  C      -2.318803      0.423718      0.164466
  C      -3.101990      1.560482     -0.474297
  H      -3.932620      1.826893      0.177901
  H      -3.538638      1.287619     -1.436051
  H      -2.491093      2.453909     -0.605353
  C      -3.147765     -0.852630      0.248404
  H      -2.040558      0.725144      1.175452
  H      -4.063735     -0.660118      0.805175
  H      -3.429368     -1.207378     -0.743914
  H      -2.616545     -1.652045      0.762798
  C      -0.861688      0.370410     -1.754151
  C       0.475452      0.189132     -2.259975
  H      -1.665443      0.724687     -2.393256
  C       1.577413      0.384365     -1.436199
  C       2.775852      0.038364     -2.121695
  S       0.895160     -0.354633     -3.820339
  C       2.558390     -0.367762     -3.402875
  H       1.547626      1.307605     -0.615566
  H       3.764314      0.141778     -1.698243
  H       3.292240     -0.653974     -4.141113
  H      -0.792940     -3.194761     -0.181599
  H      -0.795298     -2.391793      2.417439
  H       1.701441     -1.574047      3.018042
  O       1.438280      2.396780      0.210605
  O       0.540512      0.948565      1.647452
  C       0.976310      2.111028      1.320760
  C       0.928468      3.144021      2.409111
  H       0.888032      4.145767      1.989939
  H       1.840037      3.070642      3.005514
  H       0.086888      2.983223      3.078950
  H       3.242316     -1.905492      0.855041
  H       1.685879     -2.887398     -1.139569
