39
Coordinates from ORCA-job reaction4-IEIP_ts_guess_scan_1-11_orca E -1288.392609458497
  Ir      0.564981     -0.734349      0.494865
  C       0.012454     -2.809867      0.350420
  C       0.095508     -2.377424      1.725006
  C       2.180152     -2.147002      0.776399
  C       1.276730     -2.637363     -0.240918
  C       1.464903     -2.026339      1.980053
  N      -1.046230      0.162128     -0.506054
  C      -2.326771      0.488909      0.143008
  C      -3.137507      1.537466     -0.601820
  H      -3.973373      1.845419      0.024830
  H      -3.568693      1.161968     -1.531190
  H      -2.551298      2.430432     -0.821059
  C      -3.130422     -0.786202      0.366422
  H      -2.047441      0.898739      1.115310
  H      -4.053208     -0.548681      0.893555
  H      -3.399901     -1.255813     -0.580570
  H      -2.590725     -1.511369      0.973915
  C      -0.830447      0.362800     -1.745856
  C       0.522247      0.154158     -2.205401
  H      -1.609525      0.708155     -2.419992
  C       1.627254      0.534218     -1.454825
  C       2.826776      0.136551     -2.111092
  S       0.940530     -0.606233     -3.681370
  C       2.609433     -0.476643     -3.306090
  H       1.538178      1.417778     -0.622080
  H       3.816479      0.348475     -1.732989
  H       3.344718     -0.843668     -4.006400
  H      -0.878081     -3.163307     -0.149189
  H      -0.693757     -2.420754      2.461338
  H       1.853637     -1.650280      2.915472
  O       1.343619      2.414702      0.256302
  O       0.542064      0.911264      1.685982
  C       0.931315      2.096205      1.370132
  C       0.889028      3.097333      2.488615
  H       0.843441      4.109970      2.097267
  H       1.803390      3.009091      3.078783
  H       0.052195      2.917193      3.159922
  H       3.223878     -1.910302      0.631044
  H       1.533840     -2.838168     -1.271004
39
Coordinates from ORCA-job reaction4-IEIP_ts_guess_scan_1-11_orca E -1288.392769109057
  Ir      0.568949     -0.736654      0.495020
  C       0.010362     -2.812374      0.358077
  C       0.092573     -2.376680      1.731433
  C       2.179043     -2.154065      0.785066
  C       1.275841     -2.645471     -0.231769
  C       1.462149     -2.027454      1.986962
  N      -1.046127      0.161544     -0.508433
  C      -2.325800      0.486847      0.141742
  C      -3.137171      1.534466     -0.603624
  H      -3.973642      1.841835      0.022494
  H      -3.567364      1.158272     -1.533211
  H      -2.551670      2.427906     -0.822866
  C      -3.127487     -0.789390      0.365296
  H      -2.046057      0.896688      1.113910
  H      -4.050045     -0.553259      0.893426
  H      -3.397286     -1.258937     -0.581634
  H      -2.586064     -1.514047      0.971935
  C      -0.832585      0.367150     -1.751041
  C       0.520828      0.164856     -2.217387
  H      -1.613627      0.716670     -2.420825
  C       1.624905      0.531061     -1.458652
  C       2.824782      0.133065     -2.114911
  S       0.939735     -0.581217     -3.700215
  C       2.608320     -0.466250     -3.317047
  H       1.537884      1.420801     -0.621714
  H       3.814324      0.336644     -1.731708
  H       3.344074     -0.829283     -4.018856
  H      -0.880268     -3.165323     -0.141713
  H      -0.697505     -2.416702      2.467004
  H       1.850506     -1.649562      2.921792
  O       1.347419      2.419696      0.255325
  O       0.542986      0.912812      1.686828
  C       0.934576      2.098213      1.371077
  C       0.890994      3.099012      2.489644
  H       0.844541      4.111789      2.098601
  H       1.805308      3.011425      3.079923
  H       0.054141      2.917804      3.160554
  H       3.223756     -1.921430      0.640814
  H       1.534071     -2.851271     -1.260579
39
Coordinates from ORCA-job reaction4-IEIP_ts_guess_scan_1-11_orca E -1288.392825497154
  Ir      0.568443     -0.738045      0.497035
  C       0.004967     -2.813054      0.366884
  C       0.083181     -2.374038      1.738891
  C       2.173311     -2.158240      0.798535
  C       1.272777     -2.651171     -0.219445
  C       1.451981     -2.025854      1.997332
  N      -1.042200      0.158103     -0.508547
  C      -2.321804      0.483323      0.141620
  C      -3.134067      1.530827     -0.603040
  H      -3.970520      1.837771      0.023349
  H      -3.564402      1.154591     -1.532512
  H      -2.549064      2.424583     -0.822303
  C      -3.123451     -0.792827      0.365928
  H      -2.041622      0.893060      1.113735
  H      -4.045632     -0.556655      0.894772
  H      -3.393936     -1.262444     -0.580750
  H      -2.581422     -1.517267      0.972148
  C      -0.829886      0.366423     -1.752311
  C       0.522704      0.167480     -2.225462
  H      -1.612656      0.718148     -2.418573
  C       1.627361      0.520280     -1.461099
  C       2.826772      0.134449     -2.125837
  S       0.939409     -0.560510     -3.717164
  C       2.609017     -0.444504     -3.337658
  H       1.541717      1.416073     -0.620773
  H       3.816716      0.334681     -1.741859
  H       3.343954     -0.793242     -4.047488
  H      -0.884666     -3.165648     -0.134887
  H      -0.709291     -2.410546      2.471970
  H       1.837790     -1.645458      2.932195
  O       1.355597      2.417485      0.254327
  O       0.537884      0.912422      1.685131
  C       0.936112      2.095539      1.369646
  C       0.892549      3.097463      2.486645
  H       0.850367      4.110052      2.094601
  H       1.804956      3.007562      3.079536
  H       0.053140      2.919174      3.155043
  H       3.219213     -1.929093      0.657585
  H       1.534072     -2.861703     -1.246460
39
Coordinates from ORCA-job reaction4-IEIP_ts_guess_scan_1-11_orca E -1288.392845119146
  Ir      0.569064     -0.738796      0.498619
  C       0.005169     -2.813780      0.372605
  C       0.080785     -2.372516      1.743743
  C       2.172896     -2.158965      0.806442
  C       1.274146     -2.653655     -0.212135
  C       1.448944     -2.023737      2.003533
  N      -1.041085      0.155426     -0.509515
  C      -2.321621      0.478919      0.140538
  C      -3.133576      1.529058     -0.600779
  H      -3.970285      1.833877      0.026299
  H      -3.563632      1.156055     -1.531667
  H      -2.548504      2.423587     -0.816694
  C      -3.124791     -0.797153      0.360356
  H      -2.042350      0.885583      1.114204
  H      -4.047391     -0.561582      0.888747
  H      -3.394599     -1.263833     -0.587973
  H      -2.584281     -1.523733      0.965146
  C      -0.830069      0.367125     -1.752842
  C       0.521051      0.172310     -2.230318
  H      -1.614626      0.719436     -2.416525
  C       1.626072      0.516279     -1.462631
  C       2.825108      0.132248     -2.128464
  S       0.937392     -0.531929     -3.732767
  C       2.606611     -0.435944     -3.345343
  H       1.542535      1.414104     -0.620631
  H       3.815205      0.322014     -1.739635
  H       3.341026     -0.783942     -4.056069
  H      -0.883632     -3.167038     -0.130188
  H      -0.712969     -2.407480      2.475468
  H       1.833101     -1.641366      2.938278
  O       1.360932      2.416979      0.253743
  O       0.536499      0.914397      1.684110
  C       0.938484      2.095406      1.368560
  C       0.897197      3.098649      2.484199
  H       0.857082      4.110950      2.091267
  H       1.809561      3.007443      3.076997
  H       0.057475      2.922548      3.152793
  H       3.219308     -1.930956      0.667402
  H       1.537138     -2.866796     -1.238133
39
Coordinates from ORCA-job reaction4-IEIP_ts_guess_scan_1-11_orca E -1288.392862016649
  Ir      0.569366     -0.740619      0.501950
  C       0.005447     -2.815393      0.377658
  C       0.079128     -2.372786      1.748386
  C       2.172869     -2.160853      0.813684
  C       1.275378     -2.656326     -0.205735
  C       1.447018     -2.023975      2.009534
  N      -1.040728      0.153469     -0.509743
  C      -2.322366      0.475867      0.139477
  C      -3.132439      1.529433     -0.599072
  H      -3.969478      1.832795      0.028248
  H      -3.562016      1.160237     -1.531704
  H      -2.546321      2.424198     -0.811170
  C      -3.127792     -0.799833      0.353528
  H      -2.044567      0.879075      1.114983
  H      -4.051216     -0.564577      0.880581
  H      -3.396177     -1.263138     -0.596869
  H      -2.589808     -1.529148      0.957227
  C      -0.830438      0.365950     -1.752591
  C       0.519213      0.172645     -2.231630
  H      -1.616356      0.716476     -2.415716
  C       1.624597      0.511493     -1.462148
  C       2.823499      0.133438     -2.130850
  S       0.935165     -0.525018     -3.736877
  C       2.604687     -0.423849     -3.352872
  H       1.542088      1.409717     -0.620372
  H       3.813619      0.321099     -1.741151
  H       3.338875     -0.764578     -4.067351
  H      -0.882715     -3.168879     -0.126148
  H      -0.715717     -2.406614      2.478978
  H       1.829976     -1.640539      2.944346
  O       1.363895      2.414167      0.252893
  O       0.537406      0.915640      1.685042
  C       0.941240      2.094808      1.367977
  C       0.902526      3.100639      2.481525
  H       0.862585      4.112165      2.086662
  H       1.815840      3.009954      3.072964
  H       0.063792      2.926535      3.151938
  H       3.219660     -1.933610      0.676247
  H       1.539635     -2.870877     -1.231087
39
Coordinates from ORCA-job reaction4-IEIP_ts_guess_scan_1-11_orca E -1288.392870205427
  Ir      0.567896     -0.740566      0.504398
  C       0.005424     -2.815169      0.378815
  C       0.076747     -2.372769      1.749723
  C       2.171956     -2.159696      0.818298
  C       1.276236     -2.655383     -0.202658
  C       1.444109     -2.023264      2.013008
  N      -1.040226      0.152188     -0.508954
  C      -2.322311      0.473481      0.140070
  C      -3.130914      1.530258     -0.595661
  H      -3.967666      1.832663      0.032513
  H      -3.560938      1.164575     -1.529473
  H      -2.543698      2.424956     -0.804945
  C      -3.128686     -0.802446      0.349017
  H      -2.045305      0.873422      1.117142
  H      -4.052671     -0.568294      0.875556
  H      -3.396033     -1.262627     -0.603184
  H      -2.591947     -1.534129      0.951144
  C      -0.830549      0.363779     -1.751963
  C       0.518297      0.171537     -2.231928
  H      -1.617585      0.712136     -2.415073
  C       1.624233      0.507347     -1.461777
  C       2.822987      0.133885     -2.132738
  S       0.934182     -0.520677     -3.739596
  C       2.603647     -0.418996     -3.356872
  H       1.542544      1.405199     -0.620091
  H       3.813229      0.320883     -1.743094
  H       3.337491     -0.755822     -4.073560
  H      -0.881732     -3.168879     -0.126621
  H      -0.719366     -2.406752      2.478930
  H       1.825454     -1.639597      2.948391
  O       1.366933      2.411010      0.252130
  O       0.536395      0.916607      1.685287
  C       0.942804      2.094279      1.367201
  C       0.905402      3.102378      2.479108
  H       0.865875      4.113206      2.082460
  H       1.819095      3.012193      3.070046
  H       0.067076      2.930097      3.150518
  H       3.218917     -1.932107      0.682809
  H       1.542066     -2.869714     -1.227634
39
Coordinates from ORCA-job reaction4-IEIP_ts_guess_scan_1-11_orca E -1288.392878985524
  Ir      0.566890     -0.740374      0.507405
  C       0.006757     -2.815200      0.379831
  C       0.074562     -2.373140      1.751050
  C       2.171812     -2.157934      0.824551
  C       1.278755     -2.653998     -0.198657
  C       1.441092     -2.022469      2.017584
  N      -1.039948      0.150468     -0.508094
  C      -2.322444      0.470300      0.141017
  C      -3.128445      1.532054     -0.590536
  H      -3.964608      1.833660      0.038849
  H      -3.559278      1.171624     -1.526002
  H      -2.539011      2.426178     -0.795866
  C      -3.130650     -0.805674      0.342434
  H      -2.046332      0.865214      1.120364
  H      -4.055337     -0.573013      0.868448
  H      -3.396750     -1.261048     -0.612415
  H      -2.595828     -1.540946      0.941930
  C      -0.831687      0.360748     -1.751752
  C       0.516320      0.170924     -2.233373
  H      -1.620448      0.706306     -2.414319
  C       1.622669      0.502779     -1.462083
  C       2.821314      0.132563     -2.134261
  S       0.932550     -0.513485     -3.744485
  C       2.601666     -0.414109     -3.361421
  H       1.542368      1.400301     -0.619778
  H       3.811620      0.317287     -1.743746
  H       3.335309     -0.747311     -4.080015
  H      -0.878793     -3.169527     -0.127980
  H      -0.723367     -2.407711      2.478249
  H       1.820006     -1.638639      2.953887
  O       1.370380      2.408116      0.250850
  O       0.535505      0.918251      1.685795
  C       0.944545      2.094488      1.366115
  C       0.908722      3.104960      2.476108
  H       0.868397      4.114923      2.077353
  H       1.823490      3.016186      3.065604
  H       0.071609      2.933988      3.149327
  H       3.218983     -1.929679      0.691870
  H       1.546977     -2.867870     -1.223099
39
Coordinates from ORCA-job reaction4-IEIP_ts_guess_scan_1-11_orca E -1288.392887320908
  Ir      0.566587     -0.740074      0.510332
  C       0.008374     -2.815399      0.380736
  C       0.072282     -2.373496      1.752241
  C       2.171858     -2.156526      0.831467
  C       1.281713     -2.652911     -0.194195
  C       1.437925     -2.021961      2.022568
  N      -1.039654      0.148830     -0.506950
  C      -2.322636      0.466759      0.142303
  C      -3.125413      1.534539     -0.584148
  H      -3.960963      1.835330      0.046479
  H      -3.556992      1.180404     -1.521651
  H      -2.533074      2.427805     -0.784658
  C      -3.132960     -0.809299      0.334475
  H      -2.047580      0.855332      1.124441
  H      -4.058349     -0.578768      0.860239
  H      -3.397801     -1.258545     -0.623618
  H      -2.600055     -1.548965      0.930276
  C      -0.833107      0.357732     -1.751425
  C       0.514204      0.170371     -2.234887
  H      -1.623750      0.700458     -2.413210
  C       1.620997      0.498605     -1.462705
  C       2.819381      0.131544     -2.136464
  S       0.930388     -0.507183     -3.749224
  C       2.599168     -0.410405     -3.365874
  H       1.542305      1.395786     -0.619226
  H       3.809865      0.314838     -1.745755
  H       3.332539     -0.740585     -4.086146
  H      -0.875396     -3.170426     -0.129668
  H      -0.727695     -2.408613      2.477171
  H       1.814120     -1.638142      2.959969
  O       1.374085      2.406073      0.249271
  O       0.535461      0.920363      1.686405
  C       0.946719      2.095488      1.364867
  C       0.911641      3.108080      2.472863
  H       0.868983      4.117124      2.071984
  H       1.827936      3.021953      3.060370
  H       0.076275      2.937255      3.148222
  H       3.219312     -1.927811      0.701872
  H       1.552677     -2.866366     -1.218007
39
Coordinates from ORCA-job reaction4-IEIP_ts_guess_scan_1-11_orca E -1288.392895201562
  Ir      0.567056     -0.739551      0.512674
  C       0.010452     -2.815598      0.381411
  C       0.070080     -2.373422      1.753059
  C       2.172253     -2.155148      0.838648
  C       1.285283     -2.652042     -0.189537
  C       1.434736     -2.021215      2.027572
  N      -1.039336      0.147263     -0.505626
  C      -2.322795      0.463112      0.143876
  C      -3.122018      1.537526     -0.576811
  H      -3.957007      1.837430      0.054993
  H      -3.554166      1.190252     -1.516593
  H      -2.526392      2.429776     -0.771917
  C      -3.135502     -0.812942      0.325885
  H      -2.048792      0.844463      1.129098
  H      -4.061380     -0.584907      0.851905
  H      -3.399452     -1.255089     -0.635750
  H      -2.604325     -1.557569      0.917038
  C      -0.834635      0.355043     -1.750859
  C       0.512092      0.169886     -2.236284
  H      -1.627109      0.695451     -2.411635
  C       1.619430      0.495306     -1.463842
  C       2.817339      0.129892     -2.138953
  S       0.927588     -0.502143     -3.753457
  C       2.596260     -0.407540     -3.370348
  H       1.542646      1.391808     -0.618565
  H       3.808119      0.311621     -1.748270
  H       3.329249     -0.735555     -4.092001
  H      -0.871401     -3.171518     -0.131653
  H      -0.732119     -2.408969      2.475515
  H       1.807894     -1.637351      2.966166
  O       1.378035      2.404753      0.247524
  O       0.535908      0.922506      1.686497
  C       0.948889      2.096806      1.363275
  C       0.913640      3.111089      2.469483
  H       0.867553      4.119296      2.066801
  H       1.831682      3.028479      3.054757
  H       0.080281      2.939305      3.146993
  H       3.220027     -1.926114      0.712281
  H       1.559309     -2.865199     -1.212607
39
Coordinates from ORCA-job reaction4-IEIP_ts_guess_scan_1-11_orca E -1288.392902217078
  Ir      0.568271     -0.739288      0.514582
  C       0.012860     -2.816160      0.382366
  C       0.067449     -2.372953      1.753913
  C       2.172836     -2.154319      0.847028
  C       1.289559     -2.652123     -0.183890
  C       1.430956     -2.020285      2.033262
  N      -1.038897      0.145488     -0.504091
  C      -2.322890      0.459000      0.145736
  C      -3.118054      1.541081     -0.568032
  H      -3.952664      1.839595      0.064924
  H      -3.550415      1.201764     -1.510594
  H      -2.518803      2.432308     -0.756491
  C      -3.138475     -0.816895      0.315947
  H      -2.050041      0.831728      1.134537
  H      -4.064568     -0.591803      0.842868
  H      -3.402019     -1.250355     -0.649749
  H      -2.609010     -1.567493      0.901047
  C      -0.836028      0.352830     -1.749840
  C       0.510083      0.169426     -2.237414
  H      -1.630196      0.691688     -2.409377
  C       1.618236      0.492268     -1.465272
  C       2.815347      0.128888     -2.142750
  S       0.923856     -0.497868     -3.757309
  C       2.592779     -0.404858     -3.375525
  H       1.543607      1.387643     -0.617668
  H       3.806620      0.309568     -1.752837
  H       3.325093     -0.730831     -4.098786
  H      -0.866843     -3.173180     -0.133591
  H      -0.737348     -2.408543      2.473477
  H       1.800499     -1.636034      2.973129
  O       1.382639      2.403672      0.245488
  O       0.536927      0.924710      1.686040
  C       0.951313      2.098228      1.361199
  C       0.915008      3.114299      2.465491
  H       0.864329      4.121599      2.061001
  H       1.835074      3.036371      3.048221
  H       0.084013      2.940702      3.145359
  H       3.221038     -1.925302      0.724305
  H       1.567229     -2.865376     -1.205969
39
Coordinates from ORCA-job reaction4-IEIP_ts_guess_scan_1-11_orca E -1288.392906906685
  Ir      0.569583     -0.739302      0.515477
  C       0.015121     -2.816773      0.383076
  C       0.064853     -2.372138      1.754341
  C       2.173417     -2.153763      0.854584
  C       1.293708     -2.652800     -0.178772
  C       1.427227     -2.018999      2.038136
  N      -1.038460      0.144005     -0.502850
  C      -2.322797      0.455556      0.147447
  C      -3.114768      1.544043     -0.560148
  H      -3.949330      1.840761      0.073699
  H      -3.546912      1.211495     -1.505196
  H      -2.512877      2.434733     -0.742540
  C      -3.140786     -0.820148      0.307725
  H      -2.050775      0.820809      1.139237
  H      -4.066633     -0.597655      0.836170
  H      -3.404747     -1.245784     -0.661334
  H      -2.612384     -1.576053      0.886936
  C      -0.836910      0.351838     -1.748722
  C       0.508620      0.169339     -2.238199
  H      -1.632135      0.690507     -2.407113
  C       1.617682      0.490055     -1.466731
  C       2.813875      0.127692     -2.146393
  S       0.920183     -0.494347     -3.760291
  C       2.589662     -0.402513     -3.380354
  H       1.545028      1.383993     -0.616861
  H       3.805663      0.306918     -1.757127
  H       3.321171     -0.726951     -4.105109
  H      -0.862600     -3.174880     -0.135482
  H      -0.742387     -2.407471      2.471178
  H       1.793247     -1.633921      2.979052
  O       1.386964      2.402641      0.243741
  O       0.537746      0.926226      1.684933
  C       0.953275      2.099008      1.359125
  C       0.915510      3.116713      2.461793
  H       0.860720      4.123230      2.055827
  H       1.837218      3.043136      3.042496
  H       0.086478      2.941371      3.143559
  H       3.222037     -1.924931      0.735247
  H       1.574880     -2.866452     -1.199814
39
Coordinates from ORCA-job reaction4-IEIP_ts_guess_scan_1-11_orca E -1288.392909289259
  Ir      0.570464     -0.739749      0.515734
  C       0.016899     -2.817503      0.383483
  C       0.062561     -2.371583      1.754466
  C       2.173813     -2.153542      0.860550
  C       1.297127     -2.653830     -0.174778
  C       1.423962     -2.017855      2.041789
  N      -1.038150      0.143012     -0.502140
  C      -2.322606      0.453296      0.148656
  C      -3.112706      1.545901     -0.554661
  H      -3.947516      1.840772      0.079716
  H      -3.544350      1.217876     -1.501501
  H      -2.509557      2.436622     -0.732603
  C      -3.142167     -0.822248      0.302459
  H      -2.050996      0.813592      1.142356
  H      -4.067480     -0.601508      0.832566
  H      -3.407074     -1.242344     -0.668755
  H      -2.614224     -1.581913      0.877152
  C      -0.837249      0.351939     -1.747842
  C       0.507774      0.169566     -2.238694
  H      -1.632841      0.691414     -2.405418
  C       1.617668      0.488300     -1.467757
  C       2.813040      0.127080     -2.149510
  S       0.917302     -0.491367     -3.762429
  C       2.587366     -0.400588     -3.384236
  H       1.546368      1.380960     -0.616238
  H       3.805256      0.305123     -1.760802
  H       3.318082     -0.723728     -4.110357
  H      -0.859201     -3.176494     -0.137199
  H      -0.746670     -2.406585      2.469071
  H       1.787016     -1.631712      2.983429
  O       1.390266      2.401430      0.242563
  O       0.538148      0.926907      1.683846
  C       0.954586      2.099018      1.357568
  C       0.915730      3.118175      2.458951
  H       0.858087      4.124048      2.051768
  H       1.838563      3.047787      3.038275
  H       0.088088      2.941821      3.142126
  H       3.222784     -1.924914      0.744043
  H       1.581208     -2.867989     -1.194904
39
Coordinates from ORCA-job reaction4-IEIP_ts_guess_scan_1-11_orca E -1288.392910447254
  Ir      0.570584     -0.740125      0.515634
  C       0.017882     -2.817933      0.383307
  C       0.061010     -2.371440      1.754186
  C       2.173885     -2.153217      0.863803
  C       1.299126     -2.654324     -0.172779
  C       1.421770     -2.017090      2.043598
  N      -1.038043      0.142742     -0.501989
  C      -2.322450      0.452430      0.149208
  C      -3.112229      1.546375     -0.552361
  H      -3.947360      1.839900      0.082227
  H      -3.543435      1.220059     -1.499982
  H      -2.509137      2.437519     -0.728309
  C      -3.142384     -0.823166      0.300708
  H      -2.050874      0.810971      1.143547
  H      -4.067197     -0.603253      0.832031
  H      -3.408181     -1.240930     -0.671265
  H      -2.614285     -1.584414      0.873166
  C      -0.837280      0.352622     -1.747493
  C       0.507422      0.170048     -2.239047
  H      -1.632805      0.693029     -2.404698
  C       1.617818      0.487256     -1.468255
  C       2.812716      0.126351     -2.150950
  S       0.915883     -0.489045     -3.763748
  C       2.586257     -0.399396     -3.386345
  H       1.547184      1.379193     -0.615966
  H       3.805140      0.303221     -1.762245
  H       3.316471     -0.721829     -4.113278
  H      -0.857191     -3.177451     -0.138747
  H      -0.749416     -2.406343      2.467439
  H       1.782975     -1.630132      2.985626
  O       1.392084      2.400450      0.242081
  O       0.538117      0.927013      1.683207
  C       0.955276      2.098668      1.356849
  C       0.916108      3.118698      2.457532
  H       0.857262      4.124194      2.049596
  H       1.839475      3.049735      3.036182
  H       0.089152      2.942169      3.141494
  H       3.223054     -1.924615      0.749123
  H       1.584987     -2.868753     -1.192346
