39
Generated by autodE on: 2023-08-15. E = -1288.401764 Ha
Ir    0.60508  -0.72995   0.46146
C     0.09889  -2.83397   0.37365
C    -0.05050  -2.36114   1.72517
C     2.16216  -2.09697   1.10712
C     1.44641  -2.66642  -0.00653
C     1.23631  -1.93902   2.16512
N    -1.05488   0.12084  -0.50788
C    -2.33540   0.34039   0.18406
C    -3.12942   1.52163  -0.35558
H    -3.96303   1.72148   0.31596
H    -3.56182   1.32863  -1.33829
H    -2.52734   2.42897  -0.40824
C    -3.15729  -0.94329   0.15077
H    -2.06428   0.55763   1.21827
H    -4.07271  -0.81252   0.72640
H    -3.44003  -1.20246  -0.87037
H    -2.61890  -1.78646   0.58032
C    -0.89322   0.43699  -1.73942
C     0.42807   0.27586  -2.27283
H    -1.70564   0.83647  -2.33886
C     1.50527   0.17523  -1.39999
C     2.70185  -0.09296  -2.12474
S     0.86494   0.08145  -3.90505
C     2.50311  -0.16142  -3.47140
H     1.63109   1.16907  -0.57705
H     3.67956  -0.17232  -1.67223
H     3.24233  -0.32228  -4.24140
H    -0.68378  -3.24473  -0.24751
H    -0.94546  -2.39743   2.32771
H     1.45443  -1.49972   3.12839
O     1.70572   2.29399   0.17848
O     0.54179   1.00610   1.57091
C     1.10353   2.10392   1.25065
C     1.04540   3.20914   2.26310
H     1.00892   4.17878   1.77270
H     1.95511   3.18269   2.86569
H     0.19710   3.09457   2.93261
H     3.21810  -1.87824   1.14686
H     1.86790  -2.92331  -0.96731
