! Opt PBEh-3c
%geom Constraints
{ B 0 20 2.0428571428571427 C }
{ B 24 30 1.4285714285714286 C }
    end
end
%output 
xyzfile=True 
end 
%scf 
maxiter 250 
end
%output
Print[P_Hirshfeld] = 1
end
% maxcore
4000
*xyz 1 1
Ir   0.62213631  -0.72191161   0.40412117 
C    0.15306638  -2.84296993   0.32449868 
C   -0.05107118  -2.39268000   1.67683846 
C    2.17202546  -2.06021931   1.13043917 
C    1.51357041  -2.65313914  -0.00160369 
C    1.19791031  -1.93299434   2.15810681 
N   -1.06858316   0.12758982  -0.51492283 
C   -2.33438912   0.33714678   0.20275899 
C   -3.13311606   1.53209878  -0.29765439 
H   -3.95897823   1.71492343   0.38800619 
H   -3.57607474   1.36434924  -1.28033733 
H   -2.53045233   2.43990663  -0.33340025 
C   -3.15869432  -0.94491462   0.15240836 
H   -2.04430324   0.52919318   1.23679426 
H   -4.05900813  -0.83035778   0.75465882 
H   -3.46700095  -1.17394497  -0.86847738 
H   -2.60970184  -1.80043705   0.54224922 
C   -0.92068841   0.47234945  -1.74098353 
C    0.39765487   0.28474849  -2.26772931 
H   -1.72709385   0.90457140  -2.32430062 
C    1.43100825   0.06799330  -1.34858545 
C    2.64806708  -0.19474506  -2.05832384 
S    0.88979259   0.18865949  -3.88437740 
C    2.50120829  -0.15718217  -3.40978468 
H    1.61010842   1.11966087  -0.66258478 
H    3.60447760  -0.34190657  -1.57760202 
H    3.26300764  -0.29130450  -4.16263735 
H   -0.59443740  -3.27841232  -0.32244641 
H   -0.96807319  -2.44508140   2.24353190 
H    1.36888447  -1.48783019   3.12812897 
O    1.70589007   2.33135510   0.11488529 
O    0.56830886   1.02100101   1.50930764 
C    1.11731061   2.12706313   1.18862557 
C    1.05382379   3.22534425   2.21096763 
H    0.96944644   4.19499097   1.72614968 
H    1.98337038   3.22843405   2.78282233 
H    0.23119692   3.08103878   2.90605733 
H    3.22326550  -1.83383038   1.21905812 
H    1.97550554  -2.90936690  -0.94392333 
*
