! Opt PBEh-3c
%geom Constraints
{ B 0 20 2.0428571428571427 C }
{ B 24 30 1.457142857142857 C }
    end
end
%output 
xyzfile=True 
end 
%scf 
maxiter 250 
end
%output
Print[P_Hirshfeld] = 1
end
% maxcore
4000
*xyz 1 1
Ir   0.62340234  -0.71428488   0.39933811 
C    0.14304627  -2.83622540   0.33178854 
C   -0.02571547  -2.37904418   1.68583559 
C    2.18487264  -2.06063712   1.08362728 
C    1.49410431  -2.65163148  -0.03174428 
C    1.23956756  -1.92444999   2.13430550 
N   -1.06766327   0.13447464  -0.52104056 
C   -2.33212433   0.35371846   0.19584246 
C   -3.13798076   1.53377755  -0.32760765 
H   -3.96228903   1.72760999   0.35694480 
H   -3.58397811   1.34174154  -1.30448689 
H   -2.54024614   2.44368315  -0.38551791 
C   -3.15110239  -0.93269119   0.17542598 
H   -2.03886970   0.56786049   1.22462722 
H   -4.05195066  -0.80685300   0.77456995 
H   -3.45845933  -1.18696094  -0.83974610 
H   -2.59917543  -1.77623666   0.58648639 
C   -0.91831235   0.46773004  -1.74978849 
C    0.40209900   0.27455069  -2.27097871 
H   -1.72285917   0.89526355  -2.33908761 
C    1.43744199   0.08586481  -1.34631478 
C    2.65568217  -0.18939889  -2.05080345 
S    0.89253553   0.13236735  -3.88363652 
C    2.50737332  -0.19164256  -3.40197185 
H    1.59966113   1.11809772  -0.66506190 
H    3.61332973  -0.31598331  -1.56678483 
H    3.26859386  -0.34260861  -4.15218919 
H   -0.62411242  -3.26640605  -0.29545872 
H   -0.92807577  -2.42611287   2.27604842 
H    1.43810582  -1.47769926   3.09833604 
O    1.68216202   2.35084695   0.13407826 
O    0.55866944   1.01595479   1.51753066 
C    1.10031814   2.13147052   1.20508720 
C    1.02977106   3.21187663   2.24674116 
H    1.02516174   4.19461532   1.78225339 
H    1.91787053   3.15043992   2.87815400 
H    0.15905408   3.09571898   2.88708350 
H    3.23864686  -1.83637122   1.14335529 
H    1.93081487  -2.91323550  -0.98450014 
*
