39
Coordinates from ORCA-job reaction4-IEIP_ts_guess_scan_14-4_orca E -1288.394023518800
  Ir      0.628691     -0.719470      0.379815
  C       0.171200     -2.844022      0.299060
  C      -0.047759     -2.406854      1.653737
  C       2.177245     -2.049750      1.125969
  C       1.535336     -2.646178     -0.011641
  C       1.189993     -1.937521      2.147740
  N      -1.073548      0.130058     -0.518732
  C      -2.333714      0.334602      0.209322
  C      -3.133338      1.536270     -0.273082
  H      -3.955554      1.712060      0.418755
  H      -3.581195      1.380809     -1.255566
  H      -2.529511      2.443603     -0.301063
  C      -3.160088     -0.945895      0.150786
  H      -2.036169      0.515025      1.243368
  H      -4.054833     -0.837605      0.762421
  H      -3.477639     -1.162168     -0.870037
  H      -2.608290     -1.806592      0.524954
  C      -0.931892      0.483211     -1.738389
  C       0.384695      0.284470     -2.251099
  H      -1.733967      0.926287     -2.319195
  C       1.394480      0.029984     -1.308937
  C       2.622290     -0.229934     -2.008556
  S       0.906869      0.225799     -3.858057
  C       2.503445     -0.154987     -3.360252
  H       1.583087      1.110951     -0.669999
  H       3.568083     -0.401053     -1.514678
  H       3.278818     -0.278770     -4.100992
  H      -0.565634     -3.285880     -0.355668
  H      -0.970749     -2.466633      2.209772
  H       1.347923     -1.494886      3.121087
  O       1.684238      2.347093      0.067264
  O       0.587643      1.025572      1.483605
  C       1.118000      2.136672      1.152146
  C       1.062115      3.234621      2.175844
  H       0.981156      4.205543      1.693257
  H       1.992358      3.231413      2.746636
  H       0.240354      3.092523      2.872541
  H       3.226630     -1.820454      1.227992
  H       2.008599     -2.898726     -0.949387
39
Coordinates from ORCA-job reaction4-IEIP_ts_guess_scan_14-4_orca E -1288.394081092062
  Ir      0.627040     -0.713060      0.375599
  C       0.175051     -2.841425      0.298068
  C      -0.044076     -2.406305      1.653404
  C       2.178809     -2.041401      1.124584
  C       1.538648     -2.640373     -0.012647
  C       1.191347     -1.932672      2.146302
  N      -1.079675      0.129612     -0.519977
  C      -2.339029      0.334899      0.209431
  C      -3.140436      1.533948     -0.276464
  H      -3.962470      1.711031      0.415241
  H      -3.588551      1.374624     -1.258217
  H      -2.537810      2.441988     -0.307875
  C      -3.164138     -0.946614      0.156339
  H      -2.040665      0.519331      1.242578
  H      -4.058418     -0.837214      0.768470
  H      -3.482521     -1.166865     -0.863383
  H      -2.611055     -1.805412      0.532973
  C      -0.937215      0.478804     -1.745456
  C       0.381768      0.280926     -2.260881
  H      -1.740439      0.918286     -2.327307
  C       1.390828      0.030747     -1.316553
  C       2.619691     -0.230655     -2.014990
  S       0.905782      0.219574     -3.867460
  C       2.501835     -0.160535     -3.366978
  H       1.585088      1.130256     -0.695630
  H       3.565583     -0.398373     -1.519969
  H       3.277989     -0.286848     -4.106371
  H      -0.560563     -3.285918     -0.356278
  H      -0.966339     -2.469597      2.210170
  H       1.348256     -1.490144      3.119871
  O       1.745638      2.318917      0.106333
  O       0.573492      1.030990      1.485396
  C       1.134744      2.130531      1.171010
  C       1.063796      3.235456      2.185863
  H       1.020419      4.204947      1.695550
  H       1.972246      3.216838      2.790472
  H       0.214291      3.114034      2.852429
  H       3.227729     -1.810092      1.227075
  H       2.012701     -2.893047     -0.949980
39
Coordinates from ORCA-job reaction4-IEIP_ts_guess_scan_14-4_orca E -1288.393230816856
  Ir      0.635994     -0.718111      0.376307
  C       0.174415     -2.849763      0.294415
  C      -0.039688     -2.425304      1.653977
  C       2.181592     -2.062252      1.122414
  C       1.538465     -2.653272     -0.016958
  C       1.195464     -1.957594      2.145797
  N      -1.069112      0.135294     -0.507534
  C      -2.327355      0.343058      0.222619
  C      -3.119635      1.550518     -0.257298
  H      -3.942559      1.728306      0.433134
  H      -3.565552      1.400585     -1.241546
  H      -2.511189      2.454929     -0.280977
  C      -3.160974     -0.932409      0.159748
  H      -2.029490      0.518709      1.257489
  H      -4.055598     -0.821303      0.771094
  H      -3.479180     -1.143796     -0.861917
  H      -2.614257     -1.797387      0.531544
  C      -0.916902      0.495980     -1.738809
  C       0.405916      0.293685     -2.261689
  H      -1.716889      0.945093     -2.317536
  C       1.408079      0.014674     -1.316889
  C       2.634121     -0.263341     -2.016978
  S       0.933482      0.242415     -3.868178
  C       2.520571     -0.176180     -3.368120
  H       1.646997      1.136515     -0.716325
  H       3.576420     -0.451694     -1.522199
  H       3.296174     -0.310113     -4.106570
  H      -0.563573     -3.288732     -0.361035
  H      -0.960537     -2.490303      2.212676
  H       1.355488     -1.522729      3.122310
  O       1.551363      2.363509      0.036786
  O       0.576025      1.021937      1.506542
  C       1.057576      2.146256      1.156380
  C       1.024105      3.246520      2.176999
  H       0.887371      4.212299      1.696504
  H       1.983622      3.274118      2.696338
  H       0.245960      3.082201      2.917179
  H       3.231879     -1.837792      1.226426
  H       2.010777     -2.905335     -0.955379
39
Coordinates from ORCA-job reaction4-IEIP_ts_guess_scan_14-4_orca E -1288.394352695142
  Ir      0.628032     -0.719269      0.377648
  C       0.165971     -2.847562      0.306419
  C      -0.047094     -2.413653      1.663008
  C       2.174730     -2.055756      1.127167
  C       1.529727     -2.652705     -0.008112
  C       1.190063     -1.943831      2.151445
  N      -1.076089      0.128610     -0.514875
  C      -2.335804      0.333638      0.212560
  C      -3.133446      1.535819     -0.271820
  H      -3.957575      1.712170      0.417598
  H      -3.578225      1.380511     -1.255733
  H      -2.529045      2.442822     -0.298212
  C      -3.163071     -0.946179      0.153395
  H      -2.039173      0.514020      1.246850
  H      -4.058510     -0.837216      0.763914
  H      -3.479572     -1.162525     -0.867734
  H      -2.612242     -1.807141      0.528477
  C      -0.930370      0.483558     -1.740930
  C       0.389646      0.287605     -2.259252
  H      -1.732806      0.927780     -2.320116
  C       1.394787      0.020090     -1.315111
  C       2.626452     -0.233843     -2.012947
  S       0.917979      0.242036     -3.865036
  C       2.513231     -0.142835     -3.364115
  H       1.597750      1.127225     -0.694963
  H       3.570813     -0.407850     -1.517101
  H       3.292181     -0.258300     -4.102347
  H      -0.573126     -3.289517     -0.345699
  H      -0.967872     -2.473772      2.222507
  H       1.351321     -1.502197      3.124694
  O       1.671363      2.353820      0.061267
  O       0.587215      1.027635      1.484530
  C       1.112354      2.140038      1.151040
  C       1.060956      3.237513      2.174092
  H       0.973291      4.208203      1.692164
  H       1.995429      3.237087      2.737912
  H       0.244696      3.092198      2.876389
  H       3.224990     -1.829946      1.227888
  H       2.000412     -2.909093     -0.946122
39
Coordinates from ORCA-job reaction4-IEIP_ts_guess_scan_14-4_orca E -1288.394386560434
  Ir      0.626773     -0.719042      0.377936
  C       0.163990     -2.846593      0.309860
  C      -0.049027     -2.412379      1.666216
  C       2.172703     -2.054831      1.129854
  C       1.527884     -2.652386     -0.004924
  C       1.187993     -1.942439      2.154138
  N      -1.076429      0.127625     -0.516264
  C      -2.336677      0.330932      0.210647
  C      -3.136391      1.531997     -0.273232
  H      -3.960772      1.706841      0.416267
  H      -3.581020      1.376246     -1.257115
  H      -2.533422      2.439957     -0.299399
  C      -3.162083     -0.950139      0.151829
  H      -2.040240      0.511634      1.245004
  H      -4.057704     -0.842358      0.762306
  H      -3.478152     -1.167219     -0.869265
  H      -2.609905     -1.810096      0.527214
  C      -0.931422      0.484116     -1.740611
  C       0.387634      0.290141     -2.259318
  H      -1.734378      0.928908     -2.318567
  C       1.392486      0.018548     -1.316066
  C       2.624282     -0.232468     -2.014282
  S       0.918492      0.260851     -3.864539
  C       2.511116     -0.136418     -3.365132
  H       1.596492      1.129065     -0.700925
  H       3.567829     -0.412051     -1.519007
  H       3.289797     -0.251419     -4.103742
  H      -0.575178     -3.288779     -0.342004
  H      -0.970014     -2.471584      2.225491
  H       1.349380     -1.500052      3.127025
  O       1.692718      2.346436      0.067571
  O       0.587810      1.029112      1.481835
  C       1.121503      2.137699      1.152023
  C       1.066090      3.237956      2.172252
  H       0.988368      4.208136      1.687604
  H       1.995030      3.233733      2.745166
  H       0.242263      3.098554      2.866908
  H       3.223015     -1.829374      1.230693
  H       1.998537     -2.909672     -0.942707
39
Coordinates from ORCA-job reaction4-IEIP_ts_guess_scan_14-4_orca E -1288.394426271435
  Ir      0.624463     -0.721556      0.379105
  C       0.158170     -2.847737      0.318285
  C      -0.053468     -2.412774      1.674514
  C       2.168016     -2.057699      1.135696
  C       1.522412     -2.656183      0.002265
  C       1.183776     -1.943341      2.160567
  N      -1.077162      0.125466     -0.517536
  C      -2.338492      0.326191      0.208365
  C      -3.140176      1.526547     -0.274078
  H      -3.965163      1.698923      0.415275
  H      -3.584143      1.371434     -1.258349
  H      -2.538761      2.435597     -0.298619
  C      -3.162094     -0.956023      0.148268
  H      -2.042898      0.506217      1.243175
  H      -4.058392     -0.849813      0.758023
  H      -3.476871     -1.173030     -0.873236
  H      -2.608966     -1.815261      0.523784
  C      -0.932004      0.485583     -1.740067
  C       0.385896      0.292870     -2.259908
  H      -1.735573      0.931139     -2.316546
  C       1.389006      0.011475     -1.317403
  C       2.622808     -0.230205     -2.015258
  S       0.919829      0.279563     -3.864229
  C       2.513610     -0.112457     -3.364797
  H       1.595940      1.130307     -0.711715
  H       3.565075     -0.415691     -1.519853
  H       3.295000     -0.214071     -4.102544
  H      -0.581858     -3.289966     -0.332588
  H      -0.974491     -2.469534      2.233960
  H       1.346362     -1.499554      3.132617
  O       1.707072      2.341323      0.064769
  O       0.591841      1.031012      1.476971
  C       1.130774      2.136049      1.147664
  C       1.077497      3.239100      2.165392
  H       1.005231      4.208649      1.678679
  H       2.004862      3.232128      2.740863
  H       0.251204      3.104623      2.858114
  H       3.218730     -1.834035      1.236303
  H       1.992307     -2.916074     -0.935185
39
Coordinates from ORCA-job reaction4-IEIP_ts_guess_scan_14-4_orca E -1288.394464897012
  Ir      0.622380     -0.725694      0.379997
  C       0.152818     -2.850323      0.326378
  C      -0.058118     -2.414913      1.682630
  C       2.163305     -2.061651      1.142444
  C       1.517664     -2.661287      0.009930
  C       1.178919     -1.945551      2.167504
  N      -1.077642      0.122511     -0.518349
  C      -2.339680      0.320935      0.207294
  C      -3.142273      1.521624     -0.272666
  H      -3.967494      1.691605      0.416949
  H      -3.585967      1.368413     -1.257379
  H      -2.541649      2.431273     -0.294915
  C      -3.162490     -0.961652      0.144636
  H      -2.044716      0.499195      1.242649
  H      -4.059459     -0.856680      0.753588
  H      -3.476024     -1.177448     -0.877511
  H      -2.609323     -1.821035      0.519653
  C      -0.931461      0.488830     -1.739073
  C       0.386504      0.299034     -2.259627
  H      -1.734844      0.937662     -2.313287
  C       1.386885      0.003892     -1.318013
  C       2.622839     -0.228802     -2.015519
  S       0.926746      0.313599     -3.861760
  C       2.517191     -0.092604     -3.363715
  H       1.598467      1.130813     -0.720505
  H       3.563029     -0.425022     -1.520324
  H       3.300436     -0.185705     -4.100640
  H      -0.587624     -3.292771     -0.323918
  H      -0.979468     -2.469449      2.241707
  H       1.342134     -1.500326      3.138787
  O       1.703995      2.344907      0.051943
  O       0.597013      1.032521      1.470547
  C       1.133457      2.137182      1.138231
  C       1.087059      3.240375      2.156286
  H       1.010965      4.209935      1.670233
  H       2.018415      3.233735      2.725288
  H       0.265672      3.105393      2.854709
  H       3.214328     -1.839598      1.243457
  H       1.987381     -2.923736     -0.926899
39
Coordinates from ORCA-job reaction4-IEIP_ts_guess_scan_14-4_orca E -1288.394476538026
  Ir      0.622576     -0.728090      0.379731
  C       0.152508     -2.851876      0.326800
  C      -0.059982     -2.416569      1.682964
  C       2.162105     -2.063301      1.145416
  C       1.518011     -2.663367      0.012251
  C       1.176352     -1.947098      2.169348
  N      -1.076806      0.121669     -0.518194
  C      -2.338256      0.320506      0.208404
  C      -3.140122      1.522118     -0.270332
  H      -3.964762      1.692121      0.419986
  H      -3.584524      1.370061     -1.254913
  H      -2.538858      2.431359     -0.292155
  C      -3.161933     -0.961441      0.145094
  H      -2.042608      0.497955      1.243684
  H      -4.058808     -0.856052      0.754112
  H      -3.475652     -1.176466     -0.877152
  H      -2.609467     -1.821493      0.519639
  C      -0.930627      0.490159     -1.738445
  C       0.387318      0.299819     -2.259399
  H      -1.733643      0.940668     -2.311825
  C       1.387193      0.001271     -1.318325
  C       2.623412     -0.229621     -2.016095
  S       0.928342      0.319125     -3.861174
  C       2.518626     -0.087848     -3.363854
  H       1.600066      1.130833     -0.724454
  H       3.563173     -0.428666     -1.521198
  H       3.302319     -0.177869     -4.100680
  H      -0.587069     -3.294499     -0.324364
  H      -0.982160     -2.470756      2.240699
  H       1.338423     -1.501625      3.140693
  O       1.695204      2.347582      0.045161
  O       0.598132      1.031586      1.468329
  C       1.130680      2.137508      1.134310
  C       1.085768      3.240311      2.152822
  H       1.004512      4.209750      1.667352
  H       2.019823      3.236210      2.717389
  H       0.268098      3.102745      2.855081
  H       3.213014     -1.841347      1.247880
  H       1.988988     -2.926182     -0.923845
39
Coordinates from ORCA-job reaction4-IEIP_ts_guess_scan_14-4_orca E -1288.394481987181
  Ir      0.622980     -0.729887      0.379392
  C       0.153665     -2.853169      0.326325
  C      -0.061559     -2.417743      1.682193
  C       2.161411     -2.063578      1.148922
  C       1.519924     -2.664448      0.014692
  C       1.173502     -1.947670      2.171034
  N      -1.076624      0.121154     -0.517998
  C      -2.337720      0.319835      0.209416
  C      -3.138962      1.522574     -0.267485
  H      -3.963239      1.692004      0.423427
  H      -3.583785      1.372284     -1.252146
  H      -2.537220      2.431533     -0.288094
  C      -3.162106     -0.961537      0.144287
  H      -2.041664      0.495832      1.244794
  H      -4.059024     -0.856368      0.753290
  H      -3.475812     -1.175003     -0.878285
  H      -2.610314     -1.822496      0.517697
  C      -0.930492      0.491473     -1.737836
  C       0.387553      0.300404     -2.259038
  H      -1.733076      0.943416     -2.310645
  C       1.387422      0.000103     -1.318472
  C       2.623516     -0.230216     -2.016768
  S       0.928591      0.321981     -3.860712
  C       2.518762     -0.086066     -3.364325
  H       1.600328      1.131332     -0.727440
  H       3.563158     -0.430932     -1.522299
  H       3.302407     -0.174864     -4.101343
  H      -0.584321     -3.296558     -0.326117
  H      -0.984877     -2.472105      2.238016
  H       1.333476     -1.501932      3.142594
  O       1.690336      2.349616      0.040363
  O       0.599222      1.031421      1.466278
  C       1.128714      2.138434      1.130860
  C       1.085855      3.240403      2.150307
  H       1.001782      4.210073      1.665777
  H       2.021832      3.236992      2.711697
  H       0.270743      3.101356      2.855232
  H       3.212012     -1.841134      1.253501
  H       1.992974     -2.927324     -0.920350
39
Coordinates from ORCA-job reaction4-IEIP_ts_guess_scan_14-4_orca E -1288.394484959590
  Ir      0.623929     -0.732002      0.378826
  C       0.156241     -2.854752      0.324446
  C      -0.063951     -2.419373      1.679798
  C       2.160528     -2.063397      1.154291
  C       1.523729     -2.665340      0.018059
  C       1.168748     -1.948410      2.173167
  N      -1.076194      0.120997     -0.517192
  C      -2.336796      0.319055      0.211346
  C      -3.137135      1.523671     -0.262288
  H      -3.961058      1.691843      0.429373
  H      -3.582317      1.376512     -1.247256
  H      -2.534730      2.432249     -0.280476
  C      -3.162098     -0.961524      0.142764
  H      -2.040190      0.492335      1.246986
  H      -4.059010     -0.857291      0.751952
  H      -3.475898     -1.171995     -0.880394
  H      -2.611068     -1.824012      0.513754
  C      -0.930449      0.493570     -1.736451
  C       0.387552      0.301402     -2.258353
  H      -1.732505      0.947584     -2.308322
  C       1.387823     -0.000660     -1.318703
  C       2.623186     -0.231547     -2.018274
  S       0.927565      0.324321     -3.860226
  C       2.517680     -0.085818     -3.365623
  H       1.600523      1.132291     -0.731284
  H       3.562928     -0.434134     -1.524737
  H       3.300715     -0.174415     -4.103308
  H      -0.578850     -3.299464     -0.330346
  H      -0.989251     -2.474354      2.232261
  H       1.324863     -1.502571      3.145293
  O       1.687927      2.351335      0.035611
  O       0.601763      1.031014      1.463597
  C       1.129623      2.138697      1.127546
  C       1.084748      3.240947      2.146521
  H       0.997516      4.210212      1.661707
  H       2.021404      3.240179      2.706771
  H       0.270836      3.100014      2.852446
  H       3.210557     -1.840048      1.262650
  H       2.000483     -2.927931     -0.915193
39
Coordinates from ORCA-job reaction4-IEIP_ts_guess_scan_14-4_orca E -1288.394485683564
  Ir      0.624638     -0.732579      0.378378
  C       0.159895     -2.855443      0.322016
  C      -0.066126     -2.420329      1.676724
  C       2.159800     -2.061221      1.159967
  C       1.528534     -2.664462      0.021512
  C       1.163627     -1.947921      2.175189
  N      -1.076190      0.121108     -0.516476
  C      -2.336584      0.318155      0.212600
  C      -3.136270      1.524357     -0.258073
  H      -3.960253      1.691083      0.433868
  H      -3.581259      1.380106     -1.243555
  H      -2.533437      2.432700     -0.273656
  C      -3.162338     -0.961947      0.140542
  H      -2.039789      0.488801      1.248613
  H      -4.059195     -0.859186      0.750073
  H      -3.476282     -1.169404     -0.883187
  H      -2.611553     -1.825743      0.508874
  C      -0.931073      0.494668     -1.735366
  C       0.386730      0.301997     -2.258040
  H      -1.732961      0.949830     -2.306562
  C       1.387688     -0.000199     -1.319083
  C       2.622067     -0.232773     -2.019997
  S       0.925001      0.323741     -3.860376
  C       2.515332     -0.087753     -3.367269
  H       1.599788      1.133800     -0.734583
  H       3.562169     -0.435859     -1.527341
  H       3.297487     -0.177551     -4.105740
  H      -0.571723     -3.301962     -0.335411
  H      -0.993575     -2.476553      2.225465
  H       1.315125     -1.502078      3.148034
  O       1.687430      2.352475      0.032871
  O       0.603355      1.031342      1.461623
  C       1.129315      2.139707      1.124821
  C       1.086131      3.241057      2.144853
  H       0.998425      4.210786      1.661058
  H       2.023610      3.239609      2.703758
  H       0.273222      3.099652      2.851825
  H       3.209082     -1.836459      1.272558
  H       2.009528     -2.926362     -0.909766
39
Coordinates from ORCA-job reaction4-IEIP_ts_guess_scan_14-4_orca E -1288.394486392864
  Ir      0.625231     -0.732159      0.378308
  C       0.163591     -2.855713      0.319584
  C      -0.067439     -2.421424      1.673859
  C       2.159485     -2.058811      1.164552
  C       1.533046     -2.662908      0.024102
  C       1.159597     -1.947653      2.176724
  N      -1.076465      0.121301     -0.515660
  C      -2.336959      0.317357      0.213413
  C      -3.135862      1.525107     -0.254598
  H      -3.960179      1.690556      0.437240
  H      -3.580312      1.383600     -1.240716
  H      -2.532497      2.433133     -0.267576
  C      -3.163269     -0.962233      0.138048
  H      -2.040351      0.485371      1.249923
  H      -4.059880     -0.861025      0.748199
  H      -3.477642     -1.166607     -0.886177
  H      -2.612551     -1.827287      0.503516
  C      -0.931967      0.494658     -1.734528
  C       0.385518      0.302105     -2.258049
  H      -1.734082      0.949956     -2.305327
  C       1.387180      0.000536     -1.319512
  C       2.620737     -0.233694     -2.021522
  S       0.922034      0.321719     -3.860899
  C       2.512737     -0.090495     -3.368775
  H       1.598833      1.134817     -0.736155
  H       3.561321     -0.436173     -1.529525
  H       3.294074     -0.181882     -4.107922
  H      -0.564961     -3.303810     -0.340151
  H      -0.996655     -2.479111      2.219462
  H       1.307019     -1.502128      3.150340
  O       1.689447      2.352701      0.032210
  O       0.605268      1.031909      1.461154
  C       1.131308      2.140123      1.124144
  C       1.087901      3.241728      2.143949
  H       1.000674      4.211434      1.660025
  H       2.025106      3.240188      2.703325
  H       0.274612      3.100589      2.850545
  H       3.208095     -1.832791      1.280811
  H       2.017628     -2.923795     -0.905602
39
Coordinates from ORCA-job reaction4-IEIP_ts_guess_scan_14-4_orca E -1288.394487628523
  Ir      0.625776     -0.731254      0.378438
  C       0.168754     -2.855922      0.316012
  C      -0.069260     -2.423500      1.669833
  C       2.158896     -2.055332      1.170959
  C       1.539264     -2.660313      0.027603
  C       1.153890     -1.947755      2.178940
  N      -1.076780      0.121156     -0.514607
  C      -2.337323      0.316314      0.214476
  C      -3.134743      1.526393     -0.250006
  H      -3.959374      1.690589      0.441732
  H      -3.578652      1.388613     -1.236897
  H      -2.530220      2.433682     -0.259749
  C      -3.164775     -0.962340      0.135075
  H      -2.040906      0.480758      1.251633
  H      -4.060620     -0.863043      0.746650
  H      -3.480415     -1.162440     -0.889617
  H      -2.614053     -1.829203      0.496309
  C      -0.933332      0.493389     -1.733768
  C       0.383592      0.301364     -2.258525
  H      -1.736149      0.948056     -2.304153
  C       1.386050      0.000799     -1.320409
  C       2.618894     -0.234699     -2.023488
  S       0.918253      0.318897     -3.861925
  C       2.509571     -0.093391     -3.370684
  H       1.597368      1.135468     -0.737920
  H       3.560053     -0.436063     -1.532121
  H       3.290104     -0.186131     -4.110516
  H      -0.555474     -3.305998     -0.347101
  H      -1.000976     -2.483342      2.210942
  H       1.295558     -1.502883      3.153705
  O       1.690574      2.352920      0.030818
  O       0.607671      1.032570      1.461121
  C       1.133412      2.140541      1.123303
  C       1.090596      3.242722      2.142616
  H       1.003785      4.212297      1.658376
  H       2.027783      3.241067      2.702027
  H       0.277245      3.102153      2.849268
  H       3.206541     -1.827586      1.292415
  H       2.028790     -2.919361     -0.900027
39
Coordinates from ORCA-job reaction4-IEIP_ts_guess_scan_14-4_orca E -1288.394490057061
  Ir      0.626251     -0.730818      0.378741
  C       0.174121     -2.856420      0.312301
  C      -0.071087     -2.426346      1.665757
  C       2.158293     -2.052179      1.177765
  C       1.545728     -2.657845      0.031291
  C       1.148056     -1.948559      2.181435
  N      -1.077035      0.120370     -0.513635
  C      -2.337402      0.315248      0.215805
  C      -3.132620      1.528188     -0.244934
  H      -3.957226      1.691667      0.446994
  H      -3.576422      1.394494     -1.232437
  H      -2.526314      2.434304     -0.251623
  C      -3.166769     -0.961944      0.132445
  H      -2.040967      0.475920      1.253548
  H      -4.061527     -0.864095      0.745832
  H      -3.484226     -1.157433     -0.892586
  H      -2.616424     -1.830974      0.489082
  C      -0.934794      0.491230     -1.733307
  C       0.381571      0.299574     -2.259230
  H      -1.738485      0.944825     -2.303361
  C       1.384691     -0.000141     -1.321518
  C       2.617275     -0.235447     -2.025239
  S       0.915150      0.316625     -3.862963
  C       2.507093     -0.094861     -3.372361
  H       1.595726      1.135182     -0.739722
  H       3.558864     -0.435855     -1.534288
  H       3.287188     -0.187651     -4.112650
  H      -0.545619     -3.308284     -0.354450
  H      -1.005452     -2.488327      2.202055
  H       1.283774     -1.504446      3.157384
  O       1.689018      2.353287      0.027972
  O       0.609908      1.033006      1.461233
  C       1.134323      2.140985      1.121790
  C       1.092886      3.243872      2.140462
  H       1.005615      4.213179      1.655795
  H       2.030669      3.242455      2.698875
  H       0.280311      3.103741      2.848109
  H       3.204908     -1.822675      1.304647
  H       2.040320     -2.914662     -0.894275
39
Coordinates from ORCA-job reaction4-IEIP_ts_guess_scan_14-4_orca E -1288.394493270820
  Ir      0.626832     -0.730880      0.379189
  C       0.180846     -2.857227      0.307462
  C      -0.073478     -2.430347      1.660480
  C       2.157467     -2.048704      1.186531
  C       1.553888     -2.654974      0.035981
  C       1.140632     -1.950117      2.184656
  N      -1.077140      0.118798     -0.512459
  C      -2.336971      0.313942      0.217938
  C      -3.128785      1.530975     -0.237831
  H      -3.952907      1.694072      0.454772
  H      -3.573029      1.402773     -1.225864
  H      -2.519675      2.435216     -0.240939
  C      -3.169437     -0.960913      0.129685
  H      -2.040189      0.469743      1.256294
  H      -4.062569     -0.864424      0.745646
  H      -3.489636     -1.150351     -0.895637
  H      -2.619970     -1.833001      0.480279
  C      -0.936627      0.487762     -1.732984
  C       0.379092      0.296209     -2.260234
  H      -1.741521      0.939661     -2.302713
  C       1.382969     -0.002563     -1.323107
  C       2.615617     -0.236202     -2.027219
  S       0.912096      0.314312     -3.864192
  C       2.504759     -0.095312     -3.374263
  H       1.593649      1.133764     -0.742052
  H       3.557590     -0.435711     -1.536623
  H       3.284637     -0.186894     -4.114929
  H      -0.533195     -3.311020     -0.364061
  H      -1.011289     -2.494795      2.190456
  H       1.268826     -1.507048      3.162082
  O       1.684812      2.353636      0.023088
  O       0.612263      1.033233      1.461203
  C       1.134096      2.141507      1.119044
  C       1.094692      3.245363      2.136759
  H       1.006330      4.214219      1.651421
  H       2.033533      3.244452      2.693390
  H       0.283540      3.105721      2.846145
  H       3.202737     -1.817030      1.320355
  H       2.054884     -2.908652     -0.887012
39
Coordinates from ORCA-job reaction4-IEIP_ts_guess_scan_14-4_orca E -1288.394494966036
  Ir      0.627204     -0.731339      0.379462
  C       0.184113     -2.857712      0.305071
  C      -0.074515     -2.432367      1.657872
  C       2.157198     -2.047418      1.190802
  C       1.557882     -2.653781      0.038201
  C       1.137260     -1.951124      2.186193
  N      -1.077076      0.117610     -0.511819
  C      -2.336449      0.313250      0.219383
  C      -3.126029      1.532775     -0.233624
  H      -3.949616      1.695992      0.459611
  H      -3.570845      1.407732     -1.221803
  H      -2.515101      2.435786     -0.234949
  C      -3.171018     -0.960022      0.128445
  H      -2.039316      0.466407      1.257990
  H      -4.063282     -0.863888      0.745726
  H      -3.492728     -1.146126     -0.897012
  H      -2.622437     -1.833965      0.475854
  C      -0.937545      0.485521     -1.732923
  C       0.377943      0.293699     -2.260700
  H      -1.743085      0.936309     -2.302604
  C       1.382256     -0.004625     -1.324000
  C       2.615137     -0.236460     -2.028068
  S       0.911132      0.313343     -3.864693
  C       2.504082     -0.094729     -3.375108
  H       1.592793      1.132177     -0.743056
  H       3.557239     -0.435678     -1.537601
  H       3.284032     -0.184923     -4.115867
  H      -0.527235     -3.312187     -0.368828
  H      -1.014029     -2.497769      2.184720
  H       1.261924     -1.508649      3.164335
  O       1.681861      2.353428      0.020129
  O       0.612917      1.033190      1.461055
  C       1.133124      2.141737      1.117194
  C       1.094496      3.246210      2.134207
  H       1.005808      4.214752      1.648318
  H       2.033700      3.245480      2.690226
  H       0.283851      3.107022      2.844262
  H       3.201812     -1.814733      1.327951
  H       2.061913     -2.905735     -0.883614
39
Coordinates from ORCA-job reaction4-IEIP_ts_guess_scan_14-4_orca E -1288.394495099972
  Ir      0.627398     -0.731661      0.379532
  C       0.184605     -2.857788      0.304653
  C      -0.074639     -2.432532      1.657387
  C       2.157283     -2.047501      1.191510
  C       1.558547     -2.653741      0.038519
  C       1.136888     -1.951327      2.186397
  N      -1.076928      0.117192     -0.511577
  C      -2.336113      0.313036      0.219975
  C      -3.124942      1.533383     -0.232180
  H      -3.948256      1.696714      0.461369
  H      -3.570059      1.409359     -1.220349
  H      -2.513420      2.435990     -0.233009
  C      -3.171386     -0.959683      0.128141
  H      -2.038814      0.465436      1.258621
  H      -4.063534     -0.863511      0.745596
  H      -3.493353     -1.144853     -0.897400
  H      -2.623277     -1.834231      0.474807
  C      -0.937685      0.484823     -1.732879
  C       0.377803      0.292749     -2.260680
  H      -1.743367      0.935248     -2.302628
  C       1.382316     -0.005520     -1.324234
  C       2.615274     -0.236488     -2.028240
  S       0.911185      0.313207     -3.864697
  C       2.504125     -0.094240     -3.375310
  H       1.592959      1.131235     -0.743022
  H       3.557408     -0.435753     -1.537862
  H       3.284139     -0.183795     -4.116079
  H      -0.526384     -3.312183     -0.369677
  H      -1.014463     -2.497852      2.183704
  H       1.261100     -1.509045      3.164682
  O       1.681407      2.352955      0.019483
  O       0.612580      1.033144      1.460835
  C       1.132530      2.141754      1.116546
  C       1.093505      3.246493      2.133197
  H       1.005483      4.214928      1.646976
  H       2.032299      3.245510      2.689909
  H       0.282319      3.107766      2.842722
  H       3.201808     -1.814704      1.329152
  H       2.063028     -2.905323     -0.883151
