39
Coordinates from ORCA-job reaction4-IEIP_ts_guess_scan_9-1_orca E -1288.399887841999
  Ir      0.627263     -0.700501      0.407080
  C       0.095652     -2.803206      0.326013
  C       0.100543     -2.344087      1.689176
  C       2.231234     -2.092500      0.834560
  C       1.389100     -2.636126     -0.205714
  C       1.440005     -1.944314      1.993581
  N      -1.047431      0.159959     -0.532481
  C      -2.307868      0.451075      0.167352
  C      -3.102918      1.586142     -0.458876
  H      -3.922192      1.852419      0.207528
  H      -3.555876      1.311228     -1.412558
  H      -2.495031      2.480030     -0.600779
  C      -3.134065     -0.825595      0.273985
  H      -2.004142      0.753791      1.170374
  H      -4.035341     -0.631233      0.853510
  H      -3.440638     -1.182364     -0.710112
  H      -2.589086     -1.623192      0.776717
  C      -0.884308      0.395623     -1.773241
  C       0.451811      0.173387     -2.251514
  H      -1.676977      0.773931     -2.411429
  C       1.518702      0.293865     -1.359169
  C       2.736731     -0.077081     -2.008236
  S       0.916626     -0.371680     -3.788625
  C       2.561503     -0.455751     -3.301146
  H       1.505992      1.237726     -0.637949
  H       3.708873     -0.010523     -1.541749
  H       3.314278     -0.756515     -4.014025
  H      -0.759755     -3.189966     -0.209046
  H      -0.725237     -2.377534      2.383937
  H       1.770851     -1.525608      2.933330
  O       1.364410      2.461765      0.192129
  O       0.541298      0.950876      1.607183
  C       0.934884      2.137853      1.298817
  C       0.868208      3.136115      2.421000
  H       0.836936      4.150768      2.033581
  H       1.766109      3.040212      3.034517
  H       0.013092      2.956924      3.069249
  H       3.284580     -1.871164      0.752797
  H       1.701550     -2.885561     -1.209027
39
Coordinates from ORCA-job reaction4-IEIP_ts_guess_scan_9-1_orca E -1288.399911123299
  Ir      0.624452     -0.694339      0.402972
  C       0.097309     -2.800546      0.328479
  C       0.101870     -2.340295      1.691143
  C       2.230688     -2.083566      0.835341
  C       1.390109     -2.631483     -0.203814
  C       1.439015     -1.935034      1.993767
  N      -1.056442      0.158444     -0.535572
  C      -2.316844      0.448894      0.164756
  C      -3.115484      1.579076     -0.465713
  H      -3.935269      1.845581      0.199951
  H      -3.567960      1.298946     -1.418119
  H      -2.510382      2.474242     -0.611528
  C      -3.139228     -0.829697      0.277123
  H      -2.013243      0.756449      1.166335
  H      -4.040346     -0.635850      0.857057
  H      -3.445994     -1.191013     -0.705262
  H      -2.591204     -1.623792      0.782060
  C      -0.893067      0.388608     -1.782188
  C       0.446860      0.169628     -2.263037
  H      -1.687312      0.761598     -2.421521
  C       1.512289      0.293909     -1.368517
  C       2.732933     -0.073757     -2.015373
  S       0.915806     -0.377487     -3.797891
  C       2.560730     -0.455835     -3.307646
  H       1.498997      1.256296     -0.663691
  H       3.704442     -0.000999     -1.548322
  H       3.315639     -0.755125     -4.018810
  H      -0.757184     -3.190781     -0.205563
  H      -0.723221     -2.375487      2.386569
  H       1.768802     -1.513922      2.932808
  O       1.460918      2.440850      0.232261
  O       0.529620      0.959253      1.606231
  C       0.968777      2.134061      1.317968
  C       0.878593      3.136489      2.434472
  H       0.895141      4.150775      2.045098
  H       1.743508      3.015860      3.089582
  H      -0.010922      2.983567      3.041767
  H       3.283792     -1.861174      0.753937
  H       1.703184     -2.883154     -1.206372
39
Coordinates from ORCA-job reaction4-IEIP_ts_guess_scan_9-1_orca E -1288.399521015913
  Ir      0.632865     -0.703341      0.405809
  C       0.091669     -2.810228      0.329466
  C       0.099632     -2.358217      1.694656
  C       2.227827     -2.107299      0.839110
  C       1.385331     -2.646899     -0.202476
  C       1.435839     -1.958126      1.997078
  N      -1.048432      0.163281     -0.522305
  C      -2.308430      0.452098      0.179226
  C      -3.100653      1.591626     -0.442502
  H      -3.921737      1.854436      0.223001
  H      -3.550766      1.322778     -1.399309
  H      -2.491978      2.486108     -0.577338
  C      -3.136176     -0.824191      0.276434
  H      -2.005876      0.748061      1.184594
  H      -4.037315     -0.633141      0.857250
  H      -3.443040     -1.173545     -0.710255
  H      -2.591781     -1.625810      0.773271
  C      -0.876999      0.407101     -1.775363
  C       0.468848      0.187614     -2.264744
  H      -1.668849      0.790471     -2.411430
  C       1.533496      0.279505     -1.362223
  C       2.752295     -0.094725     -2.010703
  S       0.937656     -0.339301     -3.805975
  C       2.580139     -0.451883     -3.309819
  H       1.547286      1.265600     -0.669717
  H       3.723240     -0.040456     -1.539625
  H       3.333960     -0.749313     -4.022766
  H      -0.764889     -3.194218     -0.205876
  H      -0.724845     -2.393167      2.390666
  H       1.767374     -1.542548      2.937954
  O       1.272175      2.462696      0.166119
  O       0.542999      0.949548      1.619326
  C       0.899853      2.140894      1.295524
  C       0.856956      3.147525      2.410306
  H       0.786304      4.157881      2.016656
  H       1.781404      3.077088      2.986592
  H       0.033565      2.954158      3.094267
  H       3.282916     -1.893793      0.761035
  H       1.697508     -2.899079     -1.205175
39
Coordinates from ORCA-job reaction4-IEIP_ts_guess_scan_9-1_orca E -1288.400161538664
  Ir      0.626124     -0.701028      0.406705
  C       0.088927     -2.805824      0.336711
  C       0.095655     -2.346476      1.699325
  C       2.224895     -2.097396      0.842763
  C       1.382596     -2.642683     -0.196047
  C       1.433027     -1.944763      2.000751
  N      -1.051174      0.158265     -0.529477
  C      -2.312397      0.445558      0.169218
  C      -3.108121      1.580253     -0.456787
  H      -3.930077      1.843193      0.207663
  H      -3.557379      1.306283     -1.412505
  H      -2.501945      2.475862     -0.594996
  C      -3.136147     -0.833070      0.271378
  H      -2.010762      0.746358      1.173412
  H      -4.038203     -0.642338      0.850918
  H      -3.441307     -1.187500     -0.713986
  H      -2.589582     -1.630902      0.771975
  C      -0.885287      0.398318     -1.775317
  C       0.455051      0.182177     -2.260685
  H      -1.679087      0.777720     -2.411249
  C       1.520751      0.285212     -1.362485
  C       2.740614     -0.079152     -2.013594
  S       0.923011     -0.343502     -3.802617
  C       2.568089     -0.436016     -3.312925
  H       1.517850      1.248535     -0.653108
  H       3.711852     -0.019411     -1.544157
  H       3.322242     -0.726270     -4.028655
  H      -0.767182     -3.192801     -0.197082
  H      -0.729412     -2.378134      2.394879
  H       1.764203     -1.524154      2.939519
  O       1.382443      2.462529      0.192605
  O       0.542229      0.956248      1.604296
  C       0.944040      2.140105      1.297860
  C       0.877282      3.140521      2.417318
  H       0.852944      4.154753      2.028277
  H       1.771662      3.040861      3.035287
  H       0.017931      2.966187      3.061137
  H       3.279290     -1.880881      0.762506
  H       1.694722     -2.897448     -1.198090
39
Coordinates from ORCA-job reaction4-IEIP_ts_guess_scan_9-1_orca E -1288.400186235435
  Ir      0.626535     -0.702669      0.407312
  C       0.089949     -2.807557      0.338982
  C       0.094967     -2.347952      1.701321
  C       2.225104     -2.098156      0.846695
  C       1.384231     -2.644398     -0.192588
  C       1.431600     -1.945223      2.003644
  N      -1.050413      0.156552     -0.530271
  C      -2.311355      0.444701      0.168878
  C      -3.106531      1.580743     -0.455446
  H      -3.927673      1.843916      0.209901
  H      -3.556932      1.308040     -1.410961
  H      -2.499605      2.475886     -0.593388
  C      -3.136802     -0.832912      0.270980
  H      -2.008907      0.744541      1.173191
  H      -4.038302     -0.641223      0.851083
  H      -3.442937     -1.186499     -0.714380
  H      -2.591063     -1.631623      0.770962
  C      -0.884913      0.397956     -1.775573
  C       0.454625      0.183087     -2.262209
  H      -1.678998      0.778443     -2.410443
  C       1.520202      0.281818     -1.363339
  C       2.739944     -0.079435     -2.016310
  S       0.922814     -0.330842     -3.807740
  C       2.567091     -0.431562     -3.316924
  H       1.519009      1.247911     -0.656798
  H       3.711097     -0.023381     -1.546287
  H       3.320887     -0.720202     -4.033663
  H      -0.765382     -3.195098     -0.195621
  H      -0.730923     -2.379279      2.395897
  H       1.761558     -1.523799      2.942486
  O       1.385543      2.459357      0.192869
  O       0.541006      0.955953      1.603413
  C       0.944665      2.138609      1.297632
  C       0.875764      3.140940      2.415458
  H       0.852717      4.154617      2.024904
  H       1.768748      3.041831      3.035562
  H       0.014918      2.967909      3.057675
  H       3.279643     -1.881820      0.767893
  H       1.697488     -2.899992     -1.194058
39
Coordinates from ORCA-job reaction4-IEIP_ts_guess_scan_9-1_orca E -1288.400222590863
  Ir      0.626197     -0.708428      0.410688
  C       0.088450     -2.812756      0.348869
  C       0.088869     -2.351282      1.710093
  C       2.222124     -2.103008      0.861380
  C       1.384883     -2.651762     -0.179066
  C       1.423798     -1.947029      2.014995
  N      -1.048475      0.151937     -0.531843
  C      -2.309614      0.439950      0.167727
  C      -3.103840      1.579554     -0.451433
  H      -3.923910      1.841275      0.215761
  H      -3.555773      1.311118     -1.407392
  H      -2.495858      2.474422     -0.586575
  C      -3.137971     -0.836178      0.266586
  H      -2.006577      0.735992      1.173096
  H      -4.038787     -0.644092      0.847623
  H      -3.445260     -1.186205     -0.719675
  H      -2.593814     -1.637454      0.764053
  C      -0.883405      0.398354     -1.775874
  C       0.454014      0.186627     -2.266248
  H      -1.678529      0.781184     -2.408030
  C       1.518620      0.269437     -1.364255
  C       2.738888     -0.079406     -2.023122
  S       0.922605     -0.300188     -3.819615
  C       2.567353     -0.404383     -3.331067
  H       1.521584      1.241820     -0.662738
  H       3.709586     -0.032960     -1.551191
  H       3.321621     -0.677632     -4.053286
  H      -0.765049     -3.201206     -0.187991
  H      -0.739650     -2.379824      2.401596
  H       1.750574     -1.522756      2.953700
  O       1.389788      2.453325      0.187104
  O       0.540556      0.956578      1.599809
  C       0.946400      2.136440      1.292356
  C       0.880045      3.143263      2.406740
  H       0.858723      4.155644      2.012800
  H       1.773259      3.044562      3.026630
  H       0.019293      2.974030      3.050166
  H       3.277382     -1.888737      0.786949
  H       1.701267     -2.911035     -1.178580
39
Coordinates from ORCA-job reaction4-IEIP_ts_guess_scan_9-1_orca E -1288.400231827943
  Ir      0.625177     -0.710741      0.412900
  C       0.085626     -2.814133      0.354277
  C       0.083453     -2.351042      1.714868
  C       2.218868     -2.105430      0.870167
  C       1.383506     -2.655175     -0.171165
  C       1.417792     -1.946885      2.021732
  N      -1.047617      0.150253     -0.531643
  C      -2.309440      0.435054      0.168053
  C      -3.103922      1.576398     -0.447550
  H      -3.924566      1.835013      0.220140
  H      -3.555050      1.311155     -1.404798
  H      -2.496500      2.472198     -0.579021
  C      -3.137091     -0.841923      0.261445
  H      -2.007578      0.727656      1.174730
  H      -4.038455     -0.652468      0.842463
  H      -3.443383     -1.188435     -0.726374
  H      -2.592848     -1.644820      0.756281
  C      -0.882873      0.401488     -1.774875
  C       0.453693      0.192404     -2.267720
  H      -1.678779      0.786460     -2.404842
  C       1.517942      0.263080     -1.364094
  C       2.738176     -0.080114     -2.026241
  S       0.923230     -0.272078     -3.827321
  C       2.566685     -0.390603     -3.337740
  H       1.523411      1.234980     -0.659811
  H       3.708536     -0.043032     -1.552756
  H       3.320598     -0.658464     -4.062340
  H      -0.766937     -3.202667     -0.184047
  H      -0.746797     -2.377228      2.404356
  H       1.742860     -1.520945      2.960290
  O       1.396190      2.452642      0.181890
  O       0.543003      0.958538      1.596722
  C       0.951859      2.136829      1.287542
  C       0.885724      3.146095      2.399701
  H       0.864845      4.157637      2.003631
  H       1.778863      3.048260      3.019804
  H       0.024866      2.978506      3.043395
  H       3.274601     -1.892709      0.798245
  H       1.701701     -2.916563     -1.169554
39
Coordinates from ORCA-job reaction4-IEIP_ts_guess_scan_9-1_orca E -1288.400239448996
  Ir      0.624942     -0.710794      0.413840
  C       0.085246     -2.813848      0.354771
  C       0.080851     -2.350042      1.715248
  C       2.217878     -2.105398      0.874239
  C       1.384102     -2.655293     -0.168360
  C       1.414900     -1.946169      2.024381
  N      -1.047231      0.150071     -0.531304
  C      -2.309229      0.433362      0.168752
  C      -3.103764      1.575485     -0.445383
  H      -3.924616      1.832816      0.222565
  H      -3.554550      1.311634     -1.403178
  H      -2.496543      2.471631     -0.575323
  C      -3.136542     -0.844013      0.259363
  H      -2.007931      0.724480      1.175997
  H      -4.038322     -0.655858      0.840184
  H      -3.442176     -1.188852     -0.729244
  H      -2.592446     -1.647740      0.752975
  C      -0.883047      0.402433     -1.774602
  C       0.453172      0.193569     -2.268442
  H      -1.679479      0.787606     -2.403749
  C       1.517500      0.260231     -1.364786
  C       2.737583     -0.081354     -2.027810
  S       0.922494     -0.266978     -3.829389
  C       2.566057     -0.385942     -3.340738
  H       1.523765      1.231032     -0.658163
  H       3.707945     -0.046753     -1.554141
  H       3.319969     -0.650828     -4.066426
  H      -0.766358     -3.202520     -0.184958
  H      -0.750670     -2.375578      2.403239
  H       1.738512     -1.519807      2.963247
  O       1.399519      2.450930      0.180741
  O       0.543312      0.959115      1.596510
  C       0.953013      2.137006      1.286124
  C       0.887924      3.147120      2.397445
  H       0.867914      4.158340      2.000505
  H       1.781061      3.048974      3.017491
  H       0.026988      2.980800      3.041310
  H       3.273759     -1.892832      0.804017
  H       1.703869     -2.916848     -1.166207
39
Coordinates from ORCA-job reaction4-IEIP_ts_guess_scan_9-1_orca E -1288.400250662880
  Ir      0.625501     -0.710761      0.415738
  C       0.086543     -2.813610      0.353599
  C       0.076116     -2.348840      1.714059
  C       2.217179     -2.105140      0.882924
  C       1.387787     -2.655012     -0.163347
  C       1.409204     -1.945583      2.029488
  N      -1.045899      0.149700     -0.530156
  C      -2.307864      0.430717      0.171184
  C      -3.101657      1.575833     -0.438587
  H      -3.922300      1.830947      0.230500
  H      -3.552554      1.316084     -1.397429
  H      -2.493907      2.472096     -0.565029
  C      -3.135940     -0.846573      0.255369
  H      -2.007099      0.717721      1.179701
  H      -4.038228     -0.660578      0.836156
  H      -3.440889     -1.186823     -0.735036
  H      -2.592976     -1.653064      0.745640
  C      -0.883360      0.403551     -1.773786
  C       0.451873      0.194740     -2.270045
  H      -1.681054      0.789083     -2.401004
  C       1.516735      0.253768     -1.367082
  C       2.736112     -0.085089     -2.031990
  S       0.920033     -0.258870     -3.833794
  C       2.563707     -0.379557     -3.347291
  H       1.524973      1.222082     -0.655260
  H       3.706724     -0.054987     -1.558560
  H       3.317291     -0.639535     -4.075087
  H      -0.762366     -3.202792     -0.189970
  H      -0.758564     -2.373970      2.398269
  H       1.728809     -1.518989      2.969615
  O       1.406925      2.445401      0.179548
  O       0.544305      0.959485      1.597692
  C       0.957423      2.136009      1.285002
  C       0.888130      3.150024      2.392180
  H       0.867643      4.159691      1.991288
  H       1.780009      3.055442      3.014536
  H       0.025895      2.984871      3.034537
  H       3.273303     -1.892338      0.817162
  H       1.711806     -2.915945     -1.159995
39
Coordinates from ORCA-job reaction4-IEIP_ts_guess_scan_9-1_orca E -1288.400256745566
  Ir      0.625814     -0.709878      0.417044
  C       0.089523     -2.813461      0.351686
  C       0.072988     -2.348283      1.712160
  C       2.217452     -2.102937      0.890245
  C       1.392772     -2.653432     -0.159469
  C       1.404569     -1.944363      2.033478
  N      -1.045559      0.148920     -0.529597
  C      -2.307558      0.428715      0.172385
  C      -3.100435      1.576391     -0.434021
  H      -3.920833      1.830205      0.235860
  H      -3.551522      1.319861     -1.393617
  H      -2.491898      2.472475     -0.557878
  C      -3.136694     -0.848177      0.251902
  H      -2.007091      0.712517      1.181858
  H      -4.039189     -0.663552      0.832828
  H      -3.441421     -1.184787     -0.739818
  H      -2.594728     -1.656959      0.739508
  C      -0.884241      0.402902     -1.773527
  C       0.450297      0.194802     -2.271398
  H      -1.682981      0.788155     -2.399542
  C       1.515550      0.249807     -1.369135
  C       2.734447     -0.087330     -2.035125
  S       0.917928     -0.252860     -3.837380
  C       2.561114     -0.377798     -3.351368
  H       1.525048      1.216824     -0.654298
  H       3.705265     -0.059742     -1.562006
  H       3.314367     -0.636281     -4.080042
  H      -0.756527     -3.203869     -0.195438
  H      -0.764468     -2.374404      2.392957
  H       1.719912     -1.517692      2.975012
  O       1.409413      2.441553      0.178778
  O       0.543192      0.960267      1.599132
  C       0.956151      2.136324      1.283784
  C       0.890519      3.151647      2.389836
  H       0.870954      4.160855      1.987734
  H       1.783416      3.056474      3.010649
  H       0.029159      2.988557      3.033845
  H       3.273594     -1.888967      0.828725
  H       1.721070     -2.913289     -1.155007
39
Coordinates from ORCA-job reaction4-IEIP_ts_guess_scan_9-1_orca E -1288.400261881067
  Ir      0.626332     -0.709662      0.417467
  C       0.091646     -2.813972      0.350161
  C       0.072147     -2.349237      1.710759
  C       2.218035     -2.102111      0.893205
  C       1.395777     -2.652865     -0.158195
  C       1.402693     -1.944711      2.034880
  N      -1.045304      0.148431     -0.528970
  C      -2.307128      0.428472      0.173229
  C      -3.098868      1.577911     -0.431408
  H      -3.918944      1.831681      0.238865
  H      -3.550284      1.323226     -1.391331
  H      -2.489308      2.473468     -0.554066
  C      -3.137540     -0.847718      0.250845
  H      -2.006431      0.710490      1.183135
  H      -4.039688     -0.663315      0.832371
  H      -3.442886     -1.182252     -0.741392
  H      -2.596157     -1.657931      0.736774
  C      -0.884552      0.401734     -1.773101
  C       0.449552      0.193891     -2.271795
  H      -1.683797      0.786600     -2.398746
  C       1.515168      0.248338     -1.370064
  C       2.733791     -0.088191     -2.036680
  S       0.916567     -0.252361     -3.838479
  C       2.559773     -0.378063     -3.353043
  H       1.525315      1.215548     -0.655039
  H       3.704838     -0.060645     -1.564050
  H       3.312785     -0.636212     -4.082088
  H      -0.753014     -3.204984     -0.198675
  H      -0.766488     -2.376559      2.390055
  H       1.715824     -1.518359      2.977304
  O       1.410019      2.439934      0.178589
  O       0.543344      0.960137      1.599961
  C       0.957222      2.135610      1.283999
  C       0.889506      3.152499      2.388514
  H       0.868513      4.161128      1.985013
  H       1.782380      3.059659      3.009709
  H       0.028182      2.988952      3.032466
  H       3.274161     -1.887492      0.833824
  H       1.726187     -2.911879     -1.153261
39
Coordinates from ORCA-job reaction4-IEIP_ts_guess_scan_9-1_orca E -1288.400267201404
  Ir      0.626967     -0.709277      0.418133
  C       0.095750     -2.815060      0.347130
  C       0.070561     -2.351421      1.708026
  C       2.219010     -2.100104      0.898666
  C       1.401505     -2.651614     -0.155902
  C       1.398940     -1.945244      2.037405
  N      -1.045393      0.147474     -0.527809
  C      -2.307026      0.427925      0.174536
  C      -3.096518      1.580458     -0.427215
  H      -3.916243      1.834192      0.243478
  H      -3.548208      1.329033     -1.387854
  H      -2.485054      2.475023     -0.547594
  C      -3.139575     -0.847099      0.248671
  H      -2.006132      0.706737      1.185281
  H      -4.040936     -0.663351      0.831605
  H      -3.446260     -1.177710     -0.744479
  H      -2.598897     -1.659855      0.731207
  C      -0.885524      0.399196     -1.772323
  C       0.447960      0.191889     -2.272139
  H      -1.685600      0.782909     -2.397677
  C       1.514252      0.246600     -1.371304
  C       2.732534     -0.088927     -2.038917
  S       0.914025     -0.252900     -3.839633
  C       2.557420     -0.378861     -3.355206
  H       1.525121      1.214318     -0.656458
  H       3.703976     -0.060680     -1.567168
  H       3.310075     -0.636711     -4.084733
  H      -0.746242     -3.207284     -0.204930
  H      -0.770260     -2.381376      2.384501
  H       1.707704     -1.519420      2.981525
  O       1.409983      2.438449      0.177565
  O       0.543799      0.960383      1.600882
  C       0.958227      2.135138      1.283654
  C       0.889561      3.153885      2.386523
  H       0.866054      4.161842      1.981467
  H       1.783428      3.064038      3.006739
  H       0.029347      2.989597      3.031779
  H       3.275062     -1.884109      0.843384
  H       1.735977     -2.908893     -1.150077
39
Coordinates from ORCA-job reaction4-IEIP_ts_guess_scan_9-1_orca E -1288.400270407896
  Ir      0.627323     -0.709102      0.418644
  C       0.099323     -2.815975      0.344125
  C       0.068543     -2.353401      1.705331
  C       2.219557     -2.098093      0.904057
  C       1.406724     -2.650391     -0.153621
  C       1.394837     -1.945536      2.039892
  N      -1.045590      0.146728     -0.526720
  C      -2.307059      0.427208      0.175873
  C      -3.094635      1.582388     -0.423321
  H      -3.914184      1.835869      0.247677
  H      -3.546386      1.333903     -1.384686
  H      -2.481618      2.476175     -0.541504
  C      -3.141179     -0.846996      0.246624
  H      -2.006127      0.703082      1.187408
  H      -4.041720     -0.664251      0.831126
  H      -3.449229     -1.173841     -0.747358
  H      -2.600767     -1.662030      0.725666
  C      -0.886579      0.397233     -1.771572
  C       0.446442      0.190259     -2.272279
  H      -1.687360      0.779853     -2.396742
  C       1.513357      0.245328     -1.372186
  C       2.731330     -0.089473     -2.040713
  S       0.911635     -0.253736     -3.840285
  C       2.555339     -0.379283     -3.356941
  H       1.524796      1.213404     -0.657583
  H       3.703096     -0.060725     -1.569675
  H       3.307669     -0.636720     -4.086951
  H      -0.740070     -3.209229     -0.211141
  H      -0.774517     -2.385656      2.378908
  H       1.699303     -1.520018      2.985559
  O       1.410164      2.437840      0.176061
  O       0.544495      0.960867      1.600884
  C       0.958981      2.135203      1.282583
  C       0.890539      3.155085      2.384512
  H       0.864884      4.162598      1.978476
  H       1.785648      3.067333      3.003247
  H       0.031677      2.990185      3.031404
  H       3.275553     -1.880881      0.852854
  H       1.745173     -2.906017     -1.146893
