39
Coordinates from ORCA-job reaction4-IEIP_ts_guess_scan_14-6_orca E -1288.395657970276
  Ir      0.625432     -0.724238      0.382917
  C       0.172562     -2.847110      0.301886
  C      -0.064097     -2.412914      1.655005
  C       2.166188     -2.049112      1.154740
  C       1.541430     -2.647911      0.010101
  C       1.164422     -1.940429      2.164550
  N      -1.076593      0.123892     -0.516141
  C      -2.338869      0.319556      0.210937
  C      -3.136093      1.528405     -0.257423
  H      -3.960456      1.695293      0.434040
  H      -3.580590      1.387525     -1.243611
  H      -2.531183      2.435357     -0.270675
  C      -3.165963     -0.959340      0.133221
  H      -2.044767      0.486686      1.248232
  H      -4.062043     -0.859426      0.744369
  H      -3.481280     -1.161375     -0.891210
  H      -2.615213     -1.825561      0.496107
  C      -0.934712      0.486019     -1.733427
  C       0.381383      0.293600     -2.248565
  H      -1.738024      0.931495     -2.310700
  C       1.387898      0.017341     -1.310809
  C       2.616676     -0.229507     -2.011571
  S       0.908712      0.273734     -3.856107
  C       2.501904     -0.121270     -3.362094
  H       1.589836      1.121740     -0.669493
  H       3.560511     -0.416585     -1.519713
  H       3.279753     -0.229636     -4.102682
  H      -0.553853     -3.292500     -0.361993
  H      -0.994391     -2.474215      2.198522
  H       1.308393     -1.497789      3.140042
  O       1.702549      2.333825      0.050471
  O       0.594188      1.031979      1.475341
  C       1.133239      2.134082      1.139219
  C       1.090769      3.242497      2.151162
  H       0.987497      4.207014      1.659759
  H       2.035282      3.256772      2.697814
  H       0.287491      3.099410      2.868596
  H       3.213829     -1.818824      1.271294
  H       2.027556     -2.899291     -0.921372
39
Coordinates from ORCA-job reaction4-IEIP_ts_guess_scan_14-6_orca E -1288.395692630585
  Ir      0.624084     -0.717344      0.378402
  C       0.177339     -2.844076      0.299917
  C      -0.059893     -2.412439      1.653807
  C       2.168265     -2.040036      1.153076
  C       1.545680     -2.641222      0.008517
  C       1.166064     -1.935565      2.162656
  N      -1.082451      0.123807     -0.517470
  C      -2.343736      0.320536      0.211189
  C      -3.142739      1.526724     -0.260922
  H      -3.966726      1.695240      0.430580
  H      -3.587779      1.381661     -1.246266
  H      -2.538935      2.434369     -0.278087
  C      -3.169717     -0.959396      0.139563
  H      -2.048544      0.492010      1.247515
  H      -4.065157     -0.858093      0.751437
  H      -3.486172     -1.165733     -0.883669
  H      -2.617668     -1.823683      0.505081
  C      -0.939891      0.481740     -1.740668
  C       0.378426      0.289682     -2.258641
  H      -1.744391      0.923474     -2.319063
  C       1.384535      0.018532     -1.318713
  C       2.613843     -0.231482     -2.018625
  S       0.906941      0.265315     -3.866052
  C       2.499582     -0.129374     -3.369609
  H       1.593678      1.142951     -0.697142
  H       3.557857     -0.415399     -1.525746
  H       3.277810     -0.241620     -4.109116
  H      -0.547578     -3.292091     -0.363863
  H      -0.989561     -2.477690      2.197845
  H       1.308675     -1.493305      3.138529
  O       1.763035      2.304657      0.091503
  O       0.578803      1.037227      1.477878
  C       1.148559      2.127709      1.159548
  C       1.090743      3.243083      2.162678
  H       1.025767      4.206407      1.662384
  H       2.014143      3.241662      2.744474
  H       0.258281      3.120695      2.849931
  H       3.215335     -1.807434      1.270385
  H       2.032866     -2.892308     -0.922501
39
Coordinates from ORCA-job reaction4-IEIP_ts_guess_scan_14-6_orca E -1288.394716518462
  Ir      0.633350     -0.722495      0.379083
  C       0.177738     -2.852215      0.295076
  C      -0.055021     -2.431439      1.653276
  C       2.171751     -2.060520      1.150492
  C       1.546564     -2.653548      0.003409
  C       1.170651     -1.960655      2.161619
  N      -1.071292      0.129725     -0.505232
  C      -2.331389      0.329339      0.224241
  C      -3.120941      1.544125     -0.241592
  H      -3.945593      1.713684      0.448835
  H      -3.564077      1.408631     -1.229174
  H      -2.511015      2.447804     -0.251216
  C      -3.166288     -0.944140      0.143004
  H      -2.036533      0.491895      1.262151
  H      -4.061913     -0.840844      0.754296
  H      -3.482818     -1.141415     -0.882002
  H      -2.620817     -1.814728      0.503434
  C      -0.919146      0.499142     -1.733552
  C       0.402607      0.301899     -2.258525
  H      -1.720276      0.950567     -2.308929
  C       1.402029      0.003081     -1.318760
  C       2.627934     -0.265442     -2.020661
  S       0.934064      0.284479     -3.865756
  C       2.517690     -0.148242     -3.370544
  H       1.657871      1.149197     -0.716944
  H       3.568226     -0.470094     -1.528512
  H       3.294981     -0.269648     -4.109414
  H      -0.549323     -3.294639     -0.370155
  H      -0.983464     -2.498620      2.198966
  H       1.316048     -1.526198      3.140583
  O       1.565886      2.351798      0.021632
  O       0.580843      1.027675      1.499553
  C       1.070214      2.143963      1.145446
  C       1.048691      3.254067      2.154668
  H       0.889407      4.213150      1.667450
  H       2.020437      3.299121      2.649478
  H       0.289972      3.088627      2.914241
  H       3.220075     -1.834381      1.269510
  H       2.032247     -2.903514     -0.928735
39
Coordinates from ORCA-job reaction4-IEIP_ts_guess_scan_14-6_orca E -1288.395989439101
  Ir      0.624760     -0.724180      0.380391
  C       0.167738     -2.850742      0.308771
  C      -0.062997     -2.419863      1.663983
  C       2.164090     -2.054813      1.155374
  C       1.536213     -2.654271      0.013040
  C       1.164986     -1.946822      2.167910
  N      -1.079265      0.122364     -0.512391
  C      -2.341022      0.318743      0.214159
  C      -3.136090      1.528252     -0.256135
  H      -3.962239      1.695946      0.433008
  H      -3.577685      1.387552     -1.243663
  H      -2.530455      2.434746     -0.267959
  C      -3.169271     -0.959299      0.135901
  H      -2.047755      0.485786      1.251681
  H      -4.065929     -0.858551      0.746084
  H      -3.483743     -1.161286     -0.888796
  H      -2.619608     -1.825920      0.499563
  C      -0.933188      0.486391     -1.735988
  C       0.386378      0.296641     -2.256477
  H      -1.736739      0.933103     -2.311739
  C       1.388290      0.007753     -1.317047
  C       2.620799     -0.233780     -2.015813
  S       0.919576      0.287874     -3.862635
  C       2.511491     -0.110800     -3.365530
  H       1.605554      1.138943     -0.693177
  H       3.563249     -0.423442     -1.522033
  H       3.292795     -0.211613     -4.103440
  H      -0.560965     -3.296371     -0.352449
  H      -0.991054     -2.481724      2.211092
  H       1.312296     -1.505154      3.143337
  O       1.688746      2.343057      0.043975
  O       0.594050      1.034232      1.475649
  C       1.127573      2.138101      1.137905
  C       1.089006      3.245241      2.149962
  H       0.978896      4.209818      1.660117
  H       2.037358      3.262077      2.689831
  H       0.291258      3.098248      2.872594
  H       3.212575     -1.827683      1.270487
  H       2.019699     -2.909363     -0.918803
39
Coordinates from ORCA-job reaction4-IEIP_ts_guess_scan_14-6_orca E -1288.396028805747
  Ir      0.623669     -0.723291      0.380429
  C       0.166203     -2.849103      0.311534
  C      -0.064834     -2.418160      1.666517
  C       2.162220     -2.053064      1.157988
  C       1.534868     -2.653092      0.015960
  C       1.162862     -1.944926      2.170306
  N      -1.079512      0.121765     -0.513947
  C      -2.341722      0.316442      0.212131
  C      -3.139244      1.524396     -0.258146
  H      -3.965611      1.690685      0.431076
  H      -3.580763      1.382663     -1.245531
  H      -2.535285      2.432001     -0.270241
  C      -3.167751     -0.963135      0.134968
  H      -2.048511      0.484382      1.249592
  H      -4.064512     -0.863555      0.745207
  H      -3.481908     -1.166439     -0.889551
  H      -2.616402     -1.828425      0.499263
  C      -0.934382      0.486806     -1.735886
  C       0.384060      0.298709     -2.256804
  H      -1.738562      0.933745     -2.310514
  C       1.385918      0.006681     -1.318428
  C       2.618287     -0.232659     -2.017603
  S       0.919348      0.304911     -3.862197
  C       2.508655     -0.105908     -3.366990
  H       1.604371      1.141951     -0.701007
  H       3.560009     -0.427598     -1.524634
  H       3.289437     -0.207154     -4.105419
  H      -0.562359     -3.294974     -0.349661
  H      -0.993218     -2.479327      2.213179
  H       1.310021     -1.502626      3.145470
  O       1.711967      2.333821      0.052700
  O       0.593614      1.035714      1.473468
  C       1.135891      2.135579      1.140050
  C       1.093874      3.245391      2.149479
  H       0.995978      4.209779      1.656687
  H       2.036270      3.256746      2.699869
  H       0.287150      3.105477      2.863536
  H       3.210694     -1.826125      1.273471
  H       2.018580     -2.908891     -0.915581
39
Coordinates from ORCA-job reaction4-IEIP_ts_guess_scan_14-6_orca E -1288.396070239420
  Ir      0.622014     -0.725436      0.381274
  C       0.161264     -2.850092      0.318145
  C      -0.068313     -2.418744      1.673188
  C       2.158490     -2.055883      1.162279
  C       1.530212     -2.656451      0.021378
  C       1.159718     -1.946174      2.175309
  N      -1.080075      0.120308     -0.514627
  C      -2.343188      0.312840      0.210599
  C      -3.142264      1.520234     -0.258524
  H      -3.969182      1.684483      0.430488
  H      -3.583156      1.379066     -1.246262
  H      -2.539575      2.428713     -0.269199
  C      -3.167801     -0.967610      0.132242
  H      -2.050718      0.480167      1.248441
  H      -4.065116     -0.869339      0.741873
  H      -3.480908     -1.170724     -0.892636
  H      -2.615727     -1.832382      0.496553
  C      -0.934665      0.488227     -1.735256
  C       0.382886      0.300705     -2.257183
  H      -1.739280      0.935759     -2.308793
  C       1.383304      0.000699     -1.319657
  C       2.617385     -0.230970     -2.018264
  S       0.920370      0.318012     -3.861751
  C       2.511082     -0.086412     -3.366223
  H       1.604559      1.143417     -0.710293
  H       3.558132     -0.430182     -1.525246
  H       3.294195     -0.176371     -4.103672
  H      -0.568196     -3.295839     -0.342161
  H      -0.996631     -2.477910      2.220157
  H       1.308109     -1.502912      3.149847
  O       1.722413      2.330152      0.049954
  O       0.597702      1.037027      1.469764
  C       1.144181      2.134012      1.136966
  C       1.102452      3.246580      2.143644
  H       1.008309      4.210167      1.648584
  H       2.043424      3.256721      2.696500
  H       0.293505      3.110289      2.855905
  H       3.207356     -1.830592      1.277411
  H       2.013106     -2.914365     -0.910015
39
Coordinates from ORCA-job reaction4-IEIP_ts_guess_scan_14-6_orca E -1288.396126100677
  Ir      0.619208     -0.729921      0.382363
  C       0.154305     -2.852742      0.328472
  C      -0.073932     -2.420793      1.683605
  C       2.152576     -2.060179      1.170138
  C       1.523872     -2.662236      0.030668
  C       1.154007     -1.948344      2.183800
  N      -1.081184      0.116909     -0.515596
  C      -2.345500      0.306104      0.208776
  C      -3.146222      1.513380     -0.257737
  H      -3.973794      1.674376      0.431196
  H      -3.586334      1.374108     -1.246111
  H      -2.545004      2.422879     -0.265561
  C      -3.168521     -0.975173      0.127295
  H      -2.054170      0.471560      1.247321
  H      -4.066786     -0.878821      0.735800
  H      -3.479865     -1.177018     -0.898377
  H      -2.616002     -1.839797      0.491120
  C      -0.934444      0.491910     -1.733962
  C       0.383103      0.307852     -2.256647
  H      -1.738927      0.942869     -2.305009
  C       1.380263     -0.008415     -1.320642
  C       2.617122     -0.228654     -2.018304
  S       0.927937      0.357061     -3.858081
  C       2.515287     -0.061130     -3.364136
  H       1.607234      1.145028     -0.721703
  H       3.555420     -0.439952     -1.525719
  H       3.300877     -0.139898     -4.100258
  H      -0.575922     -3.298840     -0.330798
  H      -1.002459     -2.477223      2.230448
  H       1.303538     -1.503305      3.157343
  O       1.722262      2.333924      0.035593
  O       0.604475      1.039437      1.461702
  C       1.149053      2.135481      1.125875
  C       1.116358      3.248042      2.133087
  H       1.020642      4.212013      1.639170
  H       2.060950      3.256216      2.679801
  H       0.311886      3.112758      2.850593
  H       3.201866     -1.836882      1.285345
  H       2.006194     -2.923392     -0.900128
39
Coordinates from ORCA-job reaction4-IEIP_ts_guess_scan_14-6_orca E -1288.396139031750
  Ir      0.619251     -0.732420      0.382099
  C       0.153798     -2.854329      0.329097
  C      -0.076051     -2.422451      1.684092
  C       2.151092     -2.061757      1.173319
  C       1.524025     -2.664385      0.033262
  C       1.151126     -1.949816      2.185815
  N      -1.080367      0.115906     -0.515483
  C      -2.344098      0.305507      0.209792
  C      -3.144234      1.513500     -0.255736
  H      -3.971236      1.674573      0.433877
  H      -3.585059      1.375103     -1.243927
  H      -2.542473      2.422644     -0.263356
  C      -3.167815     -0.975239      0.127940
  H      -2.052069      0.470395      1.248212
  H      -4.065986     -0.878446      0.736513
  H      -3.479331     -1.176557     -0.897774
  H      -2.615885     -1.840395      0.491460
  C      -0.933671      0.493217     -1.733195
  C       0.383847      0.308932     -2.256186
  H      -1.737771      0.945989     -2.303316
  C       1.380465     -0.011123     -1.320923
  C       2.617615     -0.229242     -2.018839
  S       0.929752      0.364517     -3.857018
  C       2.516647     -0.055682     -3.364073
  H       1.608818      1.145284     -0.726071
  H       3.555398     -0.443926     -1.526734
  H       3.302662     -0.131306     -4.100070
  H      -0.575519     -3.300654     -0.331028
  H      -1.005447     -2.478472      2.229495
  H       1.299474     -1.504478      3.159386
  O       1.714206      2.336788      0.028525
  O       0.605705      1.038531      1.458928
  C       1.146536      2.135823      1.121464
  C       1.115570      3.247799      2.129352
  H       1.015549      4.211793      1.636326
  H       2.062465      3.257731      2.672020
  H       0.314498      3.110333      2.850242
  H       3.200240     -1.838524      1.289991
  H       2.007640     -2.925975     -0.896739
39
Coordinates from ORCA-job reaction4-IEIP_ts_guess_scan_14-6_orca E -1288.396146161210
  Ir      0.619681     -0.734529      0.381788
  C       0.154937     -2.855887      0.328695
  C      -0.077790     -2.423855      1.683326
  C       2.150227     -2.062228      1.177079
  C       1.525935     -2.665769      0.035965
  C       1.148007     -1.950569      2.187633
  N      -1.080160      0.115293     -0.515220
  C      -2.343525      0.304750      0.210909
  C      -3.143047      1.513865     -0.252709
  H      -3.969631      1.674366      0.437562
  H      -3.584385      1.377247     -1.240916
  H      -2.540802      2.422704     -0.259155
  C      -3.167981     -0.975370      0.127207
  H      -2.051044      0.468155      1.249405
  H      -4.066193     -0.878774      0.735763
  H      -3.479491     -1.175072     -0.898819
  H      -2.616773     -1.841461      0.489544
  C      -0.933494      0.494721     -1.732367
  C       0.384130      0.309765     -2.255554
  H      -1.737084      0.949123     -2.301854
  C       1.380738     -0.012444     -1.320969
  C       2.617743     -0.229743     -2.019517
  S       0.930162      0.368701     -3.856161
  C       2.516776     -0.053347     -3.364453
  H       1.609130      1.145917     -0.729556
  H       3.555371     -0.446546     -1.528028
  H       3.302715     -0.127572     -4.100666
  H      -0.572684     -3.303031     -0.332741
  H      -1.008392     -2.480002      2.226649
  H       1.294149     -1.504976      3.161408
  O       1.709814      2.338919      0.023315
  O       0.607175      1.038312      1.456480
  C       1.145278      2.136613      1.117703
  C       1.115561      3.247963      2.126261
  H       1.013166      4.212104      1.634004
  H       2.063856      3.258570      2.666469
  H       0.316547      3.109214      2.849181
  H       3.199022     -1.838485      1.295961
  H       2.011727     -2.927452     -0.892882
39
Coordinates from ORCA-job reaction4-IEIP_ts_guess_scan_14-6_orca E -1288.396150299844
  Ir      0.620486     -0.736345      0.381298
  C       0.157538     -2.857331      0.326912
  C      -0.080085     -2.425247      1.680912
  C       2.149248     -2.061654      1.182248
  C       1.529619     -2.666389      0.039298
  C       1.143288     -1.950934      2.189590
  N      -1.079837      0.115155     -0.514464
  C      -2.342778      0.303970      0.212612
  C      -3.141614      1.514626     -0.248120
  H      -3.967894      1.673966      0.442802
  H      -3.583277      1.380701     -1.236548
  H      -2.538869      2.423150     -0.252469
  C      -3.167898     -0.975498      0.125839
  H      -2.049807      0.464989      1.251312
  H      -4.066102     -0.879856      0.734572
  H      -3.479496     -1.172521     -0.900674
  H      -2.617258     -1.842882      0.485946
  C      -0.933543      0.496634     -1.731012
  C       0.384065      0.310841     -2.254765
  H      -1.736633      0.952889     -2.299694
  C       1.381090     -0.012881     -1.321078
  C       2.617322     -0.230877     -2.020934
  S       0.929074      0.371181     -3.855546
  C       2.515542     -0.053280     -3.365669
  H       1.609096      1.147095     -0.733500
  H       3.555069     -0.449443     -1.530437
  H       3.300833     -0.127578     -4.102558
  H      -0.567185     -3.305879     -0.336735
  H      -1.012593     -2.482028      2.220903
  H       1.285610     -1.505249      3.163874
  O       1.707907      2.340545      0.018908
  O       0.609335      1.038074      1.453743
  C       1.145741      2.137084      1.114284
  C       1.115130      3.248245      2.122970
  H       1.011278      4.212357      1.630946
  H       2.063760      3.259781      2.662574
  H       0.316771      3.108434      2.846401
  H       3.197411     -1.836895      1.304748
  H       2.019028     -2.927758     -0.887748
39
Coordinates from ORCA-job reaction4-IEIP_ts_guess_scan_14-6_orca E -1288.396151581746
  Ir      0.621267     -0.737047      0.380940
  C       0.161515     -2.858288      0.324533
  C      -0.082183     -2.426415      1.677761
  C       2.148480     -2.059443      1.188210
  C       1.534688     -2.665624      0.043051
  C       1.137999     -1.950486      2.191694
  N      -1.079947      0.115239     -0.513638
  C      -2.342732      0.302976      0.213936
  C      -3.140797      1.515349     -0.243562
  H      -3.967148      1.673163      0.447630
  H      -3.582254      1.384591     -1.232502
  H      -2.537554      2.423553     -0.245090
  C      -3.168437     -0.975860      0.123316
  H      -2.049627      0.461063      1.253037
  H      -4.066581     -0.881786      0.732396
  H      -3.480202     -1.169505     -0.903789
  H      -2.618143     -1.844683      0.480464
  C      -0.934214      0.497805     -1.729819
  C       0.383231      0.311457     -2.254357
  H      -1.737104      0.955182     -2.297883
  C       1.380958     -0.012466     -1.321368
  C       2.616183     -0.232114     -2.022700
  S       0.926318      0.370161     -3.855707
  C       2.513187     -0.054980     -3.367334
  H       1.608158      1.148661     -0.737115
  H       3.554352     -0.450988     -1.533132
  H       3.297644     -0.130180     -4.105019
  H      -0.559522     -3.308814     -0.341764
  H      -1.016886     -2.484489      2.213823
  H       1.275478     -1.504828      3.166675
  O       1.707196      2.341819      0.015727
  O       0.611220      1.038489      1.451698
  C       1.145655      2.138203      1.111314
  C       1.116768      3.248463      2.121060
  H       1.013289      4.213144      1.630093
  H       2.065865      3.258689      2.659912
  H       0.318947      3.108564      2.845059
  H       3.195795     -1.833136      1.315060
  H       2.028509     -2.926251     -0.881869
39
Coordinates from ORCA-job reaction4-IEIP_ts_guess_scan_14-6_orca E -1288.396152643969
  Ir      0.622096     -0.736988      0.380797
  C       0.165776     -2.858887      0.321760
  C      -0.083693     -2.427868      1.674397
  C       2.148040     -2.057054      1.193509
  C       1.539856     -2.664228      0.046122
  C       1.133307     -1.950420      2.193405
  N      -1.080073      0.115465     -0.512590
  C      -2.342848      0.302112      0.215197
  C      -3.139883      1.516432     -0.238886
  H      -3.966476      1.672757      0.452345
  H      -3.580897      1.389108     -1.228467
  H      -2.535922      2.424154     -0.237316
  C      -3.169361     -0.975946      0.120546
  H      -2.049814      0.456915      1.254818
  H      -4.067196     -0.883634      0.730349
  H      -3.481679     -1.165786     -0.907108
  H      -2.619277     -1.846337      0.474193
  C      -0.935021      0.498220     -1.728689
  C       0.382110      0.311821     -2.254247
  H      -1.738049      0.956108     -2.296173
  C       1.380571     -0.011856     -1.321819
  C       2.614808     -0.233423     -2.024533
  S       0.923248      0.368620     -3.856201
  C       2.510378     -0.058099     -3.369168
  H       1.607235      1.149746     -0.739218
  H       3.553480     -0.452014     -1.535786
  H       3.293867     -0.135123     -4.107695
  H      -0.551692     -3.311209     -0.347145
  H      -1.020426     -2.487489      2.206749
  H       1.266093     -1.505131      3.169201
  O       1.708851      2.342239      0.014332
  O       0.613742      1.038862      1.450885
  C       1.148449      2.138384      1.110403
  C       1.117740      3.249339      2.119371
  H       1.014969      4.213787      1.627800
  H       2.065941      3.259924      2.659789
  H       0.318769      3.109690      2.842159
  H       3.194521     -1.829285      1.324554
  H       2.037831     -2.923716     -0.876894
39
Coordinates from ORCA-job reaction4-IEIP_ts_guess_scan_14-6_orca E -1288.396154240148
  Ir      0.622446     -0.736136      0.380856
  C       0.169719     -2.858907      0.319245
  C      -0.084852     -2.429259      1.671471
  C       2.147602     -2.054208      1.198181
  C       1.544474     -2.662071      0.048750
  C       1.129204     -1.950260      2.194973
  N      -1.080334      0.115336     -0.511901
  C      -2.343141      0.301309      0.215889
  C      -3.139014      1.517394     -0.235465
  H      -3.965838      1.672796      0.455681
  H      -3.579623      1.392936     -1.225593
  H      -2.534149      2.424500     -0.231438
  C      -3.170531     -0.975987      0.118204
  H      -2.050251      0.453364      1.255969
  H      -4.067745     -0.885144      0.729127
  H      -3.483878     -1.162557     -0.909745
  H      -2.620400     -1.847707      0.468572
  C      -0.936085      0.497079     -1.728316
  C       0.380628      0.311066     -2.254836
  H      -1.739702      0.954350     -2.295520
  C       1.379644     -0.011699     -1.322624
  C       2.613405     -0.234237     -2.026032
  S       0.920378      0.365769     -3.857266
  C       2.508087     -0.060394     -3.370667
  H       1.605922      1.150179     -0.740447
  H       3.552512     -0.451747     -1.537628
  H       3.291050     -0.138377     -4.109654
  H      -0.544529     -3.312747     -0.352055
  H      -1.023366     -2.490473      2.200515
  H       1.257756     -1.505424      3.171539
  O       1.709051      2.342430      0.013281
  O       0.615206      1.039397      1.450987
  C       1.149361      2.138841      1.109774
  C       1.119931      3.249933      2.118705
  H       1.018543      4.214551      1.627216
  H       2.067950      3.259300      2.659480
  H       0.320570      3.111198      2.841253
  H       3.193302     -1.825038      1.332960
  H       2.046065     -2.920166     -0.872699
39
Coordinates from ORCA-job reaction4-IEIP_ts_guess_scan_14-6_orca E -1288.396157845507
  Ir      0.622927     -0.735120      0.381193
  C       0.176501     -2.859163      0.314968
  C      -0.086686     -2.432509      1.666663
  C       2.146908     -2.049802      1.206345
  C       1.552401     -2.658490      0.053287
  C       1.122377     -1.950872      2.197932
  N      -1.080703      0.114329     -0.510871
  C      -2.343347      0.299883      0.217257
  C      -3.136374      1.519576     -0.229275
  H      -3.963238      1.674070      0.462010
  H      -3.576744      1.400374     -1.220160
  H      -2.529209      2.425104     -0.221295
  C      -3.173136     -0.975503      0.114563
  H      -2.050517      0.447056      1.258059
  H      -4.068909     -0.886609      0.727865
  H      -3.488892     -1.156166     -0.913719
  H      -2.623354     -1.849869      0.458958
  C      -0.938035      0.493938     -1.728066
  C       0.377909      0.308536     -2.256136
  H      -1.742930      0.949541     -2.294876
  C       1.377711     -0.012888     -1.324293
  C       2.611232     -0.235228     -2.028296
  S       0.916338      0.362043     -3.859032
  C       2.504922     -0.062590     -3.372890
  H       1.603550      1.149700     -0.742252
  H       3.550883     -0.451185     -1.540234
  H       3.287400     -0.140748     -4.112373
  H      -0.532258     -3.315255     -0.360584
  H      -1.028289     -2.496378      2.189902
  H       1.243743     -1.506946      3.175823
  O       1.706959      2.342710      0.010236
  O       0.617541      1.040035      1.451544
  C       1.150040      2.139451      1.108301
  C       1.123125      3.251225      2.116639
  H       1.023404      4.215831      1.624849
  H       2.071179      3.259023      2.657382
  H       0.323646      3.114145      2.839407
  H       3.191241     -1.818277      1.347528
  H       2.060056     -2.913780     -0.865620
39
Coordinates from ORCA-job reaction4-IEIP_ts_guess_scan_14-6_orca E -1288.396160636697
  Ir      0.623401     -0.735130      0.381490
  C       0.182054     -2.859713      0.311323
  C      -0.088451     -2.435618      1.662556
  C       2.146213     -2.046799      1.213500
  C       1.559026     -2.656020      0.057283
  C       1.116463     -1.951929      2.200576
  N      -1.080758      0.112969     -0.510013
  C      -2.342971      0.298644      0.218936
  C      -3.133091      1.521827     -0.223171
  H      -3.959548      1.675910      0.468703
  H      -3.573833      1.407444     -1.214459
  H      -2.523539      2.425704     -0.212029
  C      -3.175362     -0.974691      0.111925
  H      -2.049865      0.441535      1.260226
  H      -4.069801     -0.887040      0.727347
  H      -3.493388     -1.150117     -0.916568
  H      -2.626329     -1.851606      0.451109
  C      -0.939567      0.491040     -1.727906
  C       0.375809      0.305714     -2.257087
  H      -1.745495      0.945231     -2.294402
  C       1.376232     -0.015006     -1.325750
  C       2.609812     -0.235923     -2.030005
  S       0.913825      0.360229     -3.860147
  C       2.502949     -0.062962     -3.374535
  H       1.601762      1.148471     -0.744140
  H       3.549760     -0.451262     -1.542233
  H       3.285243     -0.140117     -4.114318
  H      -0.522056     -3.317420     -0.367964
  H      -1.032778     -2.501420      2.180643
  H       1.231775     -1.508789      3.179543
  O       1.703493      2.342938      0.006262
  O       0.619284      1.040239      1.451515
  C       1.149634      2.139911      1.106013
  C       1.124552      3.252407      2.113601
  H       1.025705      4.216825      1.621313
  H       2.072772      3.259289      2.654071
  H       0.325237      3.116605      2.836813
  H       3.189365     -1.813369      1.360173
  H       2.071836     -2.908812     -0.859455
39
Coordinates from ORCA-job reaction4-IEIP_ts_guess_scan_14-6_orca E -1288.396162469678
  Ir      0.623976     -0.735769      0.381736
  C       0.186442     -2.860396      0.308412
  C      -0.089799     -2.438145      1.659221
  C       2.145784     -2.044992      1.219231
  C       1.564326     -2.654515      0.060469
  C       1.111933     -1.953019      2.202635
  N      -1.080635      0.111536     -0.509196
  C      -2.342306      0.297584      0.220775
  C      -3.129586      1.524037     -0.217345
  H      -3.955417      1.677990      0.475332
  H      -3.570983      1.414045     -1.208836
  H      -2.517732      2.426311     -0.203563
  C      -3.177323     -0.973672      0.109854
  H      -2.048784      0.436716      1.262409
  H      -4.070730     -0.886753      0.726893
  H      -3.497173     -1.144477     -0.918848
  H      -2.629417     -1.853001      0.444664
  C      -0.940720      0.488561     -1.727686
  C       0.374315      0.302927     -2.257590
  H      -1.747407      0.941619     -2.293995
  C       1.375356     -0.017388     -1.326876
  C       2.609043     -0.236432     -2.031284
  S       0.912301      0.359324     -3.860714
  C       2.501718     -0.062571     -3.375778
  H       1.600714      1.146810     -0.745729
  H       3.549196     -0.451639     -1.543851
  H       3.283926     -0.138323     -4.115796
  H      -0.514035     -3.319179     -0.373881
  H      -1.036329     -2.505201      2.173134
  H       1.222553     -1.510549      3.182435
  O       1.700320      2.342812      0.002510
  O       0.620364      1.040217      1.451095
  C       1.148766      2.140225      1.103538
  C       1.124270      3.253523      2.110190
  H       1.026276      4.217627      1.617148
  H       2.072292      3.259871      2.651017
  H       0.324687      3.118862      2.833332
  H       3.187993     -1.810116      1.370228
  H       2.081194     -2.905272     -0.854549
39
Coordinates from ORCA-job reaction4-IEIP_ts_guess_scan_14-6_orca E -1288.396162628681
  Ir      0.624308     -0.736214      0.381811
  C       0.187535     -2.860647      0.307668
  C      -0.090125     -2.438625      1.658300
  C       2.145780     -2.044872      1.220738
  C       1.565702     -2.654396      0.061294
  C       1.110893     -1.953314      2.203107
  N      -1.080474      0.111008     -0.508790
  C      -2.341926      0.297174      0.221615
  C      -3.128137      1.524868     -0.214995
  H      -3.953660      1.678786      0.478076
  H      -3.569863      1.416552     -1.206521
  H      -2.515439      2.426550     -0.200237
  C      -3.177930     -0.973267      0.109093
  H      -2.048222      0.434925      1.263353
  H      -4.071151     -0.886524      0.726438
  H      -3.498170     -1.142413     -0.919758
  H      -2.630646     -1.853523      0.442517
  C      -0.940969      0.487801     -1.727474
  C       0.374033      0.301921     -2.257499
  H      -1.747832      0.940510     -2.293794
  C       1.375397     -0.018350     -1.327147
  C       2.609055     -0.236574     -2.031675
  S       0.912016      0.359234     -3.860678
  C       2.501448     -0.062221     -3.376176
  H       1.600908      1.145918     -0.746083
  H       3.549306     -0.451877     -1.544479
  H       3.283611     -0.137375     -4.116305
  H      -0.512072     -3.319578     -0.375412
  H      -1.037248     -2.505777      2.171116
  H       1.220416     -1.511089      3.183136
  O       1.699950      2.342404      0.001456
  O       0.620388      1.040198      1.450685
  C       1.148409      2.140284      1.102544
  C       1.123193      3.254015      2.108651
  H       1.026139      4.217944      1.615087
  H       2.070603      3.260085      2.650559
  H       0.322783      3.119995      2.830994
  H       3.187766     -1.809693      1.372809
  H       2.083592     -2.904650     -0.853285
