39
Generated by autodE on: 2023-08-15. E = -1288.402582 Ha
Ir    0.60592  -0.73151   0.45217
C     0.11922  -2.83945   0.35893
C    -0.07623  -2.37368   1.70753
C     2.15190  -2.08258   1.15737
C     1.47881  -2.66246   0.02505
C     1.18748  -1.93538   2.18616
N    -1.06185   0.11560  -0.50696
C    -2.34134   0.32155   0.19057
C    -3.13248   1.51763  -0.31998
H    -3.96665   1.70174   0.35528
H    -3.56338   1.35137  -1.30821
H    -2.52810   2.42454  -0.34821
C    -3.16539  -0.95952   0.12525
H    -2.07028   0.51372   1.22972
H    -4.07796  -0.84438   0.70875
H    -3.45297  -1.18974  -0.90144
H    -2.62565  -1.81541   0.52726
C    -0.90482   0.44866  -1.73504
C     0.41418   0.28749  -2.27106
H    -1.71791   0.85861  -2.32612
C     1.48002   0.12956  -1.39108
C     2.68049  -0.12273  -2.11678
S     0.86539   0.16309  -3.90517
C     2.49482  -0.12479  -3.46707
H     1.63723   1.15044  -0.58707
H     3.65236  -0.23819  -1.65936
H     3.23965  -0.26120  -4.23637
H    -0.63762  -3.26135  -0.28618
H    -0.99029  -2.41624   2.28010
H     1.36914  -1.49248   3.15533
O     1.74588   2.28002   0.15730
O     0.55061   1.01930   1.54699
C     1.13160   2.10478   1.22733
C     1.08380   3.22229   2.22641
H     0.95606   4.17805   1.72296
H     2.03687   3.26360   2.75637
H     0.29311   3.07545   2.95659
H     3.20496  -1.86052   1.23500
H     1.93280  -2.91670  -0.92159
