! Opt PBEh-3c
%geom Constraints
{ B 0 20 2.3857142857142857 C }
{ B 24 30 1.4857142857142858 C }
    end
end
%output 
xyzfile=True 
end 
%scf 
maxiter 250 
end
%output
Print[P_Hirshfeld] = 1
end
% maxcore
4000
*xyz 1 1
Ir   0.60380035  -0.71199698   0.43067600 
C    0.05234286  -2.79869198   0.33554269 
C    0.13085440  -2.34225791   1.70119860 
C    2.21661710  -2.12068717   0.74903632 
C    1.31780570  -2.63964947  -0.25730365 
C    1.49506764  -1.97533799   1.94766150 
N   -1.04593631   0.17539439  -0.52724150 
C   -2.31086054   0.50377020   0.14735739 
C   -3.12284832   1.56962009  -0.57037263 
H   -3.94862347   1.87403741   0.07123616 
H   -3.56839804   1.21193356  -1.50010972 
H   -2.53190845   2.46132412  -0.78191372 
C   -3.11820691  -0.77048287   0.36313267 
H   -2.01056425   0.89472699   1.12078021 
H   -4.02627597  -0.53716999   0.91695139 
H   -3.41317879  -1.21873717  -0.58653989 
H   -2.56805694  -1.51113679   0.94182461 
C   -0.85140228   0.38367314  -1.77100475 
C    0.49863799   0.14819881  -2.23664997 
H   -1.63004864   0.74993095  -2.43370967 
C    1.59733969   0.46897864  -1.44446008 
C    2.80450959   0.04486589  -2.07410991 
S    0.93108422  -0.62119648  -3.69356586 
C    2.59709066  -0.55161401  -3.27694014 
H    1.53361836   1.35735523  -0.69384173 
H    3.78840063   0.22697651  -1.66690688 
H    3.33516067  -0.93620899  -3.96444415 
H   -0.83563826  -3.16588456  -0.15870331 
H   -0.65927067  -2.37168214   2.43694531 
H    1.87948601  -1.57365197   2.87421796 
O    1.28845483   2.48640528   0.26278821 
O    0.53578707   0.91157557   1.65216977 
C    0.89364011   2.12124513   1.36499051 
C    0.82290748   3.07812737   2.52321226 
H    0.77507026   4.10465637   2.17023437 
H    1.72597609   2.97404449   3.12780728 
H   -0.02466921   2.86714655   3.17212606 
H    3.26285613  -1.89420841   0.60757079 
H    1.57874924  -2.87420185  -1.27890244 
*
