39
Coordinates from ORCA-job reaction4-IEIP_ts_guess_scan_8-11_orca E -1288.401694524523
  Ir      0.609288     -0.724263      0.458928
  C       0.114750     -2.826966      0.338884
  C      -0.034301     -2.366132      1.695531
  C       2.177736     -2.088010      1.076627
  C       1.460625     -2.647662     -0.042088
  C       1.255153     -1.945705      2.139951
  N      -1.051950      0.126875     -0.508000
  C      -2.329114      0.358766      0.186952
  C      -3.114981      1.543517     -0.356701
  H      -3.945630      1.753402      0.315610
  H      -3.551047      1.349866     -1.337616
  H      -2.505610      2.445615     -0.414876
  C      -3.159206     -0.919699      0.162858
  H      -2.053192      0.579436      1.219046
  H      -4.069430     -0.781617      0.744943
  H      -3.451150     -1.180095     -0.855376
  H      -2.622509     -1.764978      0.590765
  C      -0.895176      0.417723     -1.739760
  C       0.426002      0.243793     -2.258842
  H      -1.706129      0.803968     -2.350132
  C       1.508475      0.212023     -1.387561
  C       2.704602     -0.082276     -2.103008
  S       0.857207     -0.045143     -3.879447
  C       2.501042     -0.237338     -3.441283
  H       1.601626      1.196042     -0.571919
  H       3.685494     -0.118722     -1.651825
  H       3.238409     -0.433563     -4.204913
  H      -0.668363     -3.233018     -0.284830
  H      -0.928696     -2.411034      2.298566
  H       1.473833     -1.516597      3.107660
  O       1.639030      2.310572      0.176206
  O       0.546549      0.995473      1.584022
  C       1.073822      2.107262      1.259271
  C       1.017911      3.201509      2.284208
  H       0.961870      4.175522      1.804578
  H       1.937015      3.179702      2.872680
  H       0.182094      3.070081      2.966400
  H       3.232355     -1.862239      1.113229
  H       1.880966     -2.886901     -1.007998
39
Coordinates from ORCA-job reaction4-IEIP_ts_guess_scan_8-11_orca E -1288.401942200869
  Ir      0.608838     -0.725019      0.457390
  C       0.112402     -2.829473      0.341955
  C      -0.033981     -2.369181      1.698809
  C       2.175861     -2.090944      1.076346
  C       1.457372     -2.651256     -0.040952
  C       1.254643     -1.947880      2.140231
  N      -1.055332      0.125180     -0.506431
  C      -2.332415      0.356648      0.188935
  C      -3.117876      1.541884     -0.354290
  H      -3.948926      1.751312      0.317624
  H      -3.553232      1.348928     -1.335677
  H      -2.508458      2.444042     -0.411453
  C      -3.162675     -0.921642      0.163497
  H      -2.056783      0.576337      1.221315
  H      -4.073059     -0.783979      0.745405
  H      -3.454411     -1.181118     -0.855053
  H      -2.626203     -1.767330      0.590837
  C      -0.895725      0.417573     -1.742977
  C       0.429654      0.247031     -2.265005
  H      -1.706430      0.805104     -2.352863
  C       1.509449      0.208099     -1.390010
  C       2.707300     -0.085108     -2.103814
  S       0.865257     -0.033640     -3.885839
  C       2.507488     -0.232574     -3.443535
  H       1.604348      1.202373     -0.573303
  H       3.687011     -0.124745     -1.650197
  H       3.246895     -0.426313     -4.205753
  H      -0.671630     -3.236079     -0.280273
  H      -0.927016     -2.414609      2.303698
  H       1.474652     -1.518675      3.107580
  O       1.644956      2.318004      0.173010
  O       0.546446      0.998763      1.584510
  C       1.076521      2.111727      1.258491
  C       1.020149      3.206039      2.283115
  H       0.963749      4.180097      1.803518
  H       1.939173      3.184655      2.871690
  H       0.184184      3.074056      2.964913
  H       3.230785     -1.866576      1.112235
  H       1.876389     -2.892517     -1.006941
39
Coordinates from ORCA-job reaction4-IEIP_ts_guess_scan_8-11_orca E -1288.402024397712
  Ir      0.608041     -0.725373      0.457818
  C       0.107863     -2.830205      0.349145
  C      -0.036226     -2.369454      1.705606
  C       2.172454     -2.093341      1.080035
  C       1.452593     -2.654570     -0.035530
  C       1.251986     -1.948044      2.144116
  N      -1.055835      0.123773     -0.505298
  C      -2.333134      0.353858      0.188620
  C      -3.118841      1.538313     -0.355882
  H      -3.951335      1.747051      0.314485
  H      -3.552027      1.344677     -1.338087
  H      -2.510162      2.441005     -0.412130
  C      -3.162056     -0.925293      0.162507
  H      -2.058375      0.573640      1.221212
  H      -4.073141     -0.788603      0.743590
  H      -3.452539     -1.185120     -0.856282
  H      -2.624940     -1.770304      0.590448
  C      -0.895436      0.418967     -1.743016
  C       0.430667      0.251963     -2.269073
  H      -1.707065      0.807684     -2.350708
  C       1.508676      0.202135     -1.392394
  C       2.707325     -0.086792     -2.106702
  S       0.867905     -0.015193     -3.891421
  C       2.509673     -0.218754     -3.448390
  H       1.606415      1.204947     -0.575353
  H       3.686283     -0.132108     -1.651977
  H       3.250318     -0.405154     -4.211224
  H      -0.677209     -3.236921     -0.271680
  H      -0.928424     -2.413676      2.311753
  H       1.473279     -1.517839      3.110731
  O       1.651966      2.320489      0.170807
  O       0.546665      1.000138      1.582289
  C       1.079759      2.111989      1.256525
  C       1.024674      3.206243      2.280411
  H       0.968928      4.180351      1.800808
  H       1.943859      3.184212      2.868727
  H       0.188600      3.074548      2.962027
  H       3.227828     -1.871105      1.115493
  H       1.870357     -2.898942     -1.001265
39
Coordinates from ORCA-job reaction4-IEIP_ts_guess_scan_8-11_orca E -1288.402080873281
  Ir      0.607437     -0.726880      0.459453
  C       0.103073     -2.831496      0.359106
  C      -0.039377     -2.369230      1.714795
  C       2.168983     -2.096591      1.086776
  C       1.447998     -2.659205     -0.027059
  C       1.248706     -1.947888      2.150690
  N      -1.055767      0.121677     -0.505639
  C      -2.334362      0.349005      0.186495
  C      -3.121468      1.533159     -0.356801
  H      -3.955133      1.739520      0.312830
  H      -3.553137      1.340305     -1.339803
  H      -2.514139      2.436888     -0.410918
  C      -3.161825     -0.931110      0.157852
  H      -2.061160      0.567408      1.219848
  H      -4.073947     -0.796180      0.737745
  H      -3.450418     -1.190142     -0.861666
  H      -2.624269     -1.775800      0.585735
  C      -0.894531      0.422189     -1.742439
  C       0.430912      0.259399     -2.272042
  H      -1.707019      0.813204     -2.347324
  C       1.507309      0.193935     -1.394468
  C       2.706437     -0.088020     -2.110574
  S       0.870430      0.019545     -3.897597
  C       2.510024     -0.201364     -3.454208
  H       1.609382      1.204582     -0.577409
  H       3.684475     -0.144111     -1.655115
  H       3.251136     -0.380755     -4.218270
  H      -0.682872     -3.238389     -0.260487
  H      -0.931190     -2.411103      2.321617
  H       1.471114     -1.515853      3.116251
  O       1.661554      2.319692      0.168963
  O       0.547797      1.002711      1.579450
  C       1.085105      2.111621      1.254108
  C       1.032374      3.207826      2.275554
  H       0.977846      4.181211      1.794350
  H       1.951934      3.185575      2.863294
  H       0.196360      3.078308      2.957645
  H       3.224867     -1.876882      1.122202
  H       1.864731     -2.907573     -0.992197
39
Coordinates from ORCA-job reaction4-IEIP_ts_guess_scan_8-11_orca E -1288.402124978214
  Ir      0.606050     -0.730898      0.462872
  C       0.094296     -2.833764      0.374703
  C      -0.046917     -2.367664      1.728777
  C       2.162343     -2.103099      1.099287
  C       1.440175     -2.667748     -0.012425
  C       1.241601     -1.947560      2.162202
  N      -1.054529      0.118610     -0.506779
  C      -2.335301      0.341271      0.183196
  C      -3.125203      1.524777     -0.357594
  H      -3.959938      1.727130      0.311844
  H      -3.555696      1.333220     -1.341372
  H      -2.520252      2.430282     -0.408933
  C      -3.160231     -0.940480      0.150569
  H      -2.064552      0.557633      1.217715
  H      -4.074097     -0.808313      0.728345
  H      -3.445608     -1.198461     -0.870126
  H      -2.622074     -1.784645      0.578586
  C      -0.892436      0.427880     -1.740936
  C       0.430717      0.268897     -2.274439
  H      -1.706017      0.822107     -2.342232
  C       1.505229      0.178864     -1.396833
  C       2.704826     -0.089862     -2.116823
  S       0.871614      0.063174     -3.903813
  C       2.511093     -0.163902     -3.463751
  H       1.614793      1.198107     -0.580583
  H       3.681806     -0.161238     -1.661343
  H       3.253561     -0.323490     -4.230904
  H      -0.692649     -3.240463     -0.243746
  H      -0.939036     -2.404253      2.335427
  H       1.465256     -1.512064      3.125943
  O       1.677094      2.312909      0.165473
  O       0.549910      1.005816      1.574430
  C       1.094332      2.109229      1.249169
  C       1.045531      3.210538      2.265303
  H       0.993047      4.181850      1.779719
  H       1.965751      3.188890      2.852036
  H       0.209785      3.086199      2.948678
  H       3.219064     -1.887662      1.135295
  H       1.856031     -2.922626     -0.976196
39
Coordinates from ORCA-job reaction4-IEIP_ts_guess_scan_8-11_orca E -1288.402145128185
  Ir      0.605004     -0.733312      0.464254
  C       0.091111     -2.834674      0.380852
  C      -0.051568     -2.365716      1.733801
  C       2.159181     -2.105046      1.106508
  C       1.437971     -2.671173     -0.004996
  C       1.237041     -1.945877      2.167941
  N      -1.053614      0.116583     -0.508033
  C      -2.335044      0.336730      0.182081
  C      -3.126508      1.520068     -0.356727
  H      -3.960920      1.720394      0.313669
  H      -3.557635      1.329452     -1.340444
  H      -2.522682      2.426389     -0.407185
  C      -3.158782     -0.945718      0.147265
  H      -2.065085      0.552011      1.217064
  H      -4.073566     -0.814723      0.723830
  H      -3.442481     -1.203109     -0.874055
  H      -2.620709     -1.789860      0.575381
  C      -0.891557      0.431811     -1.739951
  C       0.430277      0.275010     -2.274070
  H      -1.705168      0.829349     -2.339126
  C       1.504458      0.171522     -1.397721
  C       2.703807     -0.090162     -2.120268
  S       0.872931      0.097197     -3.906240
  C       2.509833     -0.148973     -3.468101
  H       1.618875      1.191266     -0.581239
  H       3.680171     -0.172734     -1.665394
  H       3.251714     -0.303642     -4.236830
  H      -0.695305     -3.241696     -0.238057
  H      -0.944762     -2.399385      2.339029
  H       1.460088     -1.508058      3.130773
  O       1.686392      2.305782      0.164791
  O       0.549311      1.006959      1.570755
  C       1.098797      2.107059      1.246339
  C       1.051024      3.211808      2.259251
  H       1.000029      4.181560      1.770405
  H       1.971057      3.190979      2.846283
  H       0.214859      3.090994      2.942731
  H       3.216120     -1.890894      1.143761
  H       1.854704     -2.928979     -0.967585
39
Coordinates from ORCA-job reaction4-IEIP_ts_guess_scan_8-11_orca E -1288.402152739909
  Ir      0.604378     -0.734961      0.464814
  C       0.090507     -2.835565      0.382626
  C      -0.054276     -2.364214      1.734754
  C       2.157872     -2.105662      1.110697
  C       1.438156     -2.672885     -0.001268
  C       1.234295     -1.944452      2.170658
  N      -1.053586      0.115791     -0.508605
  C      -2.335147      0.334626      0.182238
  C      -3.127174      1.518319     -0.354978
  H      -3.961061      1.717592      0.316389
  H      -3.559097      1.328727     -1.338550
  H      -2.523718      2.424926     -0.404855
  C      -3.158648     -0.947879      0.145569
  H      -2.065402      0.549021      1.217439
  H      -4.074090     -0.817300      0.721201
  H      -3.441243     -1.204536     -0.876238
  H      -2.621272     -1.792456      0.573598
  C      -0.891456      0.434355     -1.739400
  C       0.429881      0.277068     -2.272930
  H      -1.704560      0.833729     -2.338008
  C       1.504497      0.167671     -1.397909
  C       2.703467     -0.090397     -2.121961
  S       0.872412      0.107811     -3.906347
  C       2.509170     -0.140593     -3.470261
  H       1.622438      1.184800     -0.580538
  H       3.679791     -0.177065     -1.667776
  H       3.250799     -0.290977     -4.240079
  H      -0.694916     -3.243242     -0.237107
  H      -0.948531     -2.396404      2.338519
  H       1.456187     -1.505207      3.133100
  O       1.692457      2.299590      0.164851
  O       0.548399      1.007159      1.568927
  C       1.101620      2.105450      1.244718
  C       1.053375      3.212420      2.255453
  H       1.002784      4.180928      1.764066
  H       1.973137      3.192901      2.842909
  H       0.216825      3.093604      2.938785
  H       3.214788     -1.891547      1.149132
  H       1.856312     -2.931955     -0.962892
39
Coordinates from ORCA-job reaction4-IEIP_ts_guess_scan_8-11_orca E -1288.402154306380
  Ir      0.603699     -0.735617      0.464802
  C       0.090540     -2.836095      0.382975
  C      -0.056732     -2.362655      1.734328
  C       2.156683     -2.105245      1.114137
  C       1.438912     -2.673604      0.001483
  C       1.231382     -1.942736      2.172385
  N      -1.053831      0.115670     -0.508587
  C      -2.335352      0.333220      0.182851
  C      -3.128090      1.517006     -0.353225
  H      -3.961761      1.715234      0.318730
  H      -3.560316      1.328088     -1.336795
  H      -2.525182      2.424012     -0.402500
  C      -3.158215     -0.949592      0.144572
  H      -2.065703      0.547003      1.218176
  H      -4.074302     -0.819706      0.719360
  H      -3.439742     -1.205688     -0.877663
  H      -2.621164     -1.794429      0.572497
  C      -0.891567      0.436695     -1.738848
  C       0.429675      0.278986     -2.272139
  H      -1.704175      0.837670     -2.336996
  C       1.504692      0.165283     -1.398336
  C       2.703074     -0.090988     -2.123651
  S       0.871587      0.114431     -3.906574
  C       2.508218     -0.135625     -3.472213
  H       1.626761      1.179275     -0.578979
  H       3.679462     -0.180374     -1.670153
  H       3.249500     -0.283550     -4.242844
  H      -0.693597     -3.244741     -0.237740
  H      -0.952017     -2.394186      2.336621
  H       1.451665     -1.502449      3.134710
  O       1.699387      2.294327      0.165769
  O       0.546961      1.007463      1.567506
  C       1.104480      2.104180      1.243718
  C       1.055068      3.212607      2.252767
  H       1.004464      4.180128      1.759361
  H       1.974508      3.194572      2.840734
  H       0.218043      3.094889      2.935648
  H       3.213478     -1.890737      1.153974
  H       1.858874     -2.933530     -0.959123
39
Coordinates from ORCA-job reaction4-IEIP_ts_guess_scan_8-11_orca E -1288.402153940722
  Ir      0.603190     -0.735751      0.464723
  C       0.091212     -2.836679      0.383385
  C      -0.058814     -2.361431      1.733963
  C       2.155752     -2.104264      1.117919
  C       1.440271     -2.673975      0.004522
  C       1.228428     -1.940943      2.174253
  N      -1.054383      0.115788     -0.508322
  C      -2.336034      0.331894      0.183253
  C      -3.129424      1.515777     -0.351746
  H      -3.963285      1.712746      0.320343
  H      -3.561339      1.327624     -1.335597
  H      -2.527121      2.423245     -0.399913
  C      -3.158231     -0.951259      0.143024
  H      -2.066713      0.544886      1.218814
  H      -4.075040     -0.822310      0.716902
  H      -3.438553     -1.206544     -0.879741
  H      -2.621453     -1.796393      0.570672
  C      -0.891887      0.439025     -1.738181
  C       0.429261      0.281319     -2.271786
  H      -1.704177      0.841471     -2.335711
  C       1.504592      0.163233     -1.399143
  C       2.702227     -0.091969     -2.125847
  S       0.870229      0.121105     -3.907209
  C       2.506614     -0.131695     -3.474559
  H       1.631800      1.174379     -0.576787
  H       3.678737     -0.183969     -1.673144
  H       3.247448     -0.277871     -4.245952
  H      -0.691411     -3.246646     -0.238350
  H      -0.955076     -2.392942      2.334819
  H       1.446739     -1.499734      3.136603
  O       1.707889      2.289483      0.167537
  O       0.545495      1.008140      1.566312
  C       1.107973      2.102993      1.243264
  C       1.057232      3.212735      2.250631
  H       1.005979      4.179332      1.755383
  H       1.976611      3.196675      2.838718
  H       0.220000      3.095546      2.933279
  H       3.212362     -1.889141      1.159383
  H       1.862271     -2.934690     -0.954975
39
Coordinates from ORCA-job reaction4-IEIP_ts_guess_scan_8-11_orca E -1288.402152118488
  Ir      0.602650     -0.735247      0.464486
  C       0.092501     -2.837114      0.383398
  C      -0.061306     -2.360333      1.733125
  C       2.154639     -2.102382      1.122690
  C       1.442414     -2.673728      0.008147
  C       1.224417     -1.938792      2.176451
  N      -1.055096      0.116295     -0.507860
  C      -2.337043      0.330453      0.183545
  C      -3.131338      1.514407     -0.350049
  H      -3.965712      1.709558      0.321916
  H      -3.562484      1.327281     -1.334429
  H      -2.529887      2.422531     -0.396490
  C      -3.158190     -0.953286      0.140827
  H      -2.068257      0.542285      1.219484
  H      -4.075725     -0.825936      0.713920
  H      -3.437263     -1.207301     -0.882597
  H      -2.621282     -1.798738      0.567688
  C      -0.892384      0.441645     -1.737323
  C       0.428500      0.284288     -2.271784
  H      -1.704569      0.845460     -2.334039
  C       1.504117      0.161444     -1.400453
  C       2.700777     -0.093489     -2.128726
  S       0.868060      0.128126     -3.908217
  C       2.504116     -0.128594     -3.477491
  H       1.638212      1.169313     -0.573650
  H       3.677467     -0.188291     -1.676981
  H       3.244341     -0.273660     -4.249678
  H      -0.688023     -3.248796     -0.239820
  H      -0.958822     -2.392496      2.332079
  H       1.439832     -1.496717      3.139058
  O       1.719169      2.284133      0.170586
  O       0.543772      1.009361      1.565047
  C       1.112586      2.101648      1.243358
  C       1.060282      3.212969      2.248703
  H       1.007134      4.178481      1.751419
  H       1.980146      3.200079      2.836080
  H       0.223458      3.095713      2.931758
  H       3.210961     -1.886324      1.166519
  H       1.867201     -2.935055     -0.949957
39
Coordinates from ORCA-job reaction4-IEIP_ts_guess_scan_8-11_orca E -1288.402151318782
  Ir      0.602470     -0.734542      0.464317
  C       0.094212     -2.837285      0.382656
  C      -0.062716     -2.360376      1.731992
  C       2.154194     -2.100530      1.126061
  C       1.444754     -2.672843      0.010350
  C       1.221518     -1.937685      2.177850
  N      -1.055657      0.116696     -0.507486
  C      -2.337859      0.329659      0.183645
  C      -3.132375      1.514010     -0.348725
  H      -3.967226      1.707906      0.322991
  H      -3.562807      1.328015     -1.333632
  H      -2.531218      2.422409     -0.393557
  C      -3.158592     -0.954299      0.138950
  H      -2.069500      0.540276      1.219956
  H      -4.076332     -0.828203      0.711990
  H      -3.437288     -1.206870     -0.884941
  H      -2.621445     -1.800211      0.564599
  C      -0.892962      0.442802     -1.736766
  C       0.427603      0.285878     -2.272067
  H      -1.705357      0.846999     -2.332962
  C       1.503388      0.160956     -1.401461
  C       2.699425     -0.094647     -2.130539
  S       0.866092      0.130792     -3.908921
  C       2.502004     -0.128359     -3.479233
  H       1.642177      1.166819     -0.571398
  H       3.676264     -0.190618     -1.679354
  H       3.241800     -0.273593     -4.251795
  H      -0.684576     -3.250124     -0.241947
  H      -0.961236     -2.393689      2.329371
  H       1.434401     -1.495324      3.140896
  O       1.726631      2.281159      0.173167
  O       0.542828      1.010375      1.564464
  C       1.115614      2.100851      1.243962
  C       1.062421      3.213336      2.247918
  H       1.006078      4.178042      1.749346
  H       1.983564      3.203883      2.833343
  H       0.227066      3.095068      2.932549
  H       3.210239     -1.883582      1.171976
  H       1.871773     -2.933960     -0.946824
39
Coordinates from ORCA-job reaction4-IEIP_ts_guess_scan_8-11_orca E -1288.402151334858
  Ir      0.602421     -0.733925      0.464286
  C       0.095978     -2.837230      0.381303
  C      -0.063892     -2.361189      1.730569
  C       2.153894     -2.098889      1.128890
  C       1.447131     -2.671622      0.011811
  C       1.218854     -1.937386      2.178934
  N      -1.056005      0.116850     -0.507210
  C      -2.338391      0.329030      0.183758
  C      -3.132659      1.514175     -0.347157
  H      -3.967826      1.707102      0.324430
  H      -3.562629      1.329663     -1.332544
  H      -2.531378      2.422566     -0.390370
  C      -3.159132     -0.954885      0.137179
  H      -2.070337      0.538160      1.220458
  H      -4.076636     -0.829946      0.710834
  H      -3.438190     -1.205640     -0.887066
  H      -2.621606     -1.801475      0.561032
  C      -0.893550      0.442983     -1.736409
  C       0.426668      0.286484     -2.272435
  H      -1.706348      0.846927     -2.332271
  C       1.502532      0.161024     -1.402144
  C       2.698236     -0.095532     -2.131509
  S       0.864492      0.131136     -3.909346
  C       2.500373     -0.129365     -3.480116
  H       1.644325      1.165882     -0.570154
  H       3.675165     -0.191837     -1.680579
  H       3.239911     -0.275197     -4.252815
  H      -0.681227     -3.250689     -0.244860
  H      -0.963451     -2.395756      2.326300
  H       1.429295     -1.495105      3.142558
  O       1.731341      2.279671      0.174942
  O       0.542516      1.011271      1.564111
  C       1.117591      2.100474      1.244535
  C       1.064131      3.214006      2.247383
  H       1.002884      4.177915      1.747794
  H       1.987507      3.208757      2.829326
  H       0.231528      3.093913      2.935014
  H       3.209685     -1.881208      1.176970
  H       1.876169     -2.931924     -0.944692
39
Coordinates from ORCA-job reaction4-IEIP_ts_guess_scan_8-11_orca E -1288.402152267992
  Ir      0.602475     -0.733635      0.464440
  C       0.098003     -2.837189      0.379327
  C      -0.065025     -2.362643      1.728732
  C       2.153734     -2.097488      1.131685
  C       1.449854     -2.670270      0.012920
  C       1.216164     -1.937744      2.179944
  N      -1.056254      0.116627     -0.506929
  C      -2.338694      0.328421      0.184103
  C      -3.132107      1.514907     -0.345021
  H      -3.967393      1.707165      0.326604
  H      -3.561872      1.332397     -1.330871
  H      -2.530195      2.422954     -0.386488
  C      -3.160028     -0.955063      0.135404
  H      -2.070811      0.535692      1.221221
  H      -4.076996     -0.831081      0.710109
  H      -3.439979     -1.203509     -0.889164
  H      -2.622308     -1.802709      0.556925
  C      -0.894232      0.442419     -1.736139
  C       0.425707      0.286204     -2.272669
  H      -1.707493      0.845795     -2.331805
  C       1.501670      0.161232     -1.402471
  C       2.697236     -0.096152     -2.131845
  S       0.863174      0.129841     -3.909452
  C       2.499135     -0.130916     -3.480372
  H       1.645104      1.165752     -0.569864
  H       3.674231     -0.192203     -1.680999
  H       3.238510     -0.277375     -4.253106
  H      -0.677535     -3.250922     -0.248719
  H      -0.965825     -2.398445      2.322502
  H       1.424019     -1.495778      3.144278
  O       1.733907      2.279045      0.175762
  O       0.542660      1.011952      1.563815
  C       1.118789      2.100379      1.244783
  C       1.065395      3.214908      2.246639
  H       0.997021      4.177845      1.746047
  H       1.992055      3.215152      2.823348
  H       0.237008      3.092025      2.938829
  H       3.209268     -1.879149      1.182240
  H       1.880999     -2.929253     -0.943002
