39
Generated by autodE on: 2023-08-15. E = -1288.398084 Ha
Ir    0.62095  -0.74109   0.38341
C     0.19060  -2.86372   0.31151
C    -0.10648  -2.44466   1.65948
C     2.13301  -2.04156   1.25169
C     1.57298  -2.65521   0.08604
C     1.08303  -1.95449   2.22057
N    -1.08433   0.10480  -0.50629
C    -2.34824   0.28040   0.22271
C    -3.13221   1.51523  -0.19749
H    -3.96001   1.65912   0.49502
H    -3.57053   1.42303  -1.19215
H    -2.51865   2.41591  -0.16670
C    -3.18462  -0.98757   0.08861
H    -2.05833   0.40275   1.26746
H    -4.07879  -0.91101   0.70596
H    -3.50333  -1.13973  -0.94337
H    -2.63784  -1.87349   0.40771
C    -0.94429   0.49191  -1.72186
C     0.37011   0.31225  -2.25426
H    -1.75219   0.94760  -2.28438
C     1.36793  -0.03283  -1.33134
C     2.60219  -0.23779  -2.03620
S     0.91294   0.40870  -3.85573
C     2.49831  -0.02900  -3.37715
H     1.61173   1.16428  -0.75156
H     3.54025  -0.47119  -1.55316
H     3.28258  -0.08944  -4.11641
H    -0.49679  -3.32800  -0.38028
H    -1.06118  -2.51344   2.15783
H     1.17703  -1.51195   3.20203
O     1.72023   2.33423  -0.01695
O     0.62956   1.04796   1.43849
C     1.16577   2.13957   1.08804
C     1.15506   3.26094   2.08469
H     1.05192   4.22122   1.58514
H     2.10986   3.27093   2.61344
H     0.36403   3.13255   2.81813
H     3.17204  -1.80341   1.41865
H     2.10507  -2.90465  -0.82058
