39
Generated by autodE on: 2023-08-15. E = -1288.403731 Ha
Ir    0.60310  -0.73675   0.45523
C     0.12126  -2.84377   0.36765
C    -0.09746  -2.37662   1.71229
C     2.13886  -2.08001   1.19760
C     1.48736  -2.66633   0.05747
C     1.15486  -1.93213   2.20961
N    -1.06452   0.10762  -0.50582
C    -2.34653   0.30187   0.19070
C    -3.13650   1.50605  -0.30255
H    -3.97282   1.67875   0.37300
H    -3.56396   1.35660  -1.29493
H    -2.53189   2.41318  -0.31372
C    -3.17009  -0.97803   0.10259
H    -2.07962   0.47820   1.23378
H    -4.08449  -0.87313   0.68519
H    -3.45432  -1.19180  -0.92859
H    -2.63095  -1.84029   0.49166
C    -0.90833   0.45289  -1.73104
C     0.40834   0.29998  -2.27275
H    -1.72373   0.86672  -2.31625
C     1.47165   0.10700  -1.39862
C     2.67157  -0.12630  -2.12951
S     0.86213   0.23429  -3.91090
C     2.48800  -0.07776  -3.48004
H     1.65134   1.15868  -0.58225
H     3.64196  -0.26635  -1.67579
H     3.23412  -0.19138  -4.25182
H    -0.62239  -3.27216  -0.28838
H    -1.02095  -2.41971   2.26941
H     1.31818  -1.48493   3.18008
O     1.77217   2.26652   0.14106
O     0.55772   1.02933   1.53491
C     1.15119   2.10309   1.21366
C     1.11991   3.23010   2.20144
H     0.99947   4.18280   1.69042
H     2.07578   3.26647   2.72677
H     0.33079   3.09692   2.93579
H     3.19017  -1.85703   1.29364
H     1.95798  -2.92341  -0.88024
