! Opt PBEh-3c
%geom Constraints
{ B 0 20 2.4714285714285715 C }
{ B 24 30 1.4428571428571428 C }
    end
end
%output 
xyzfile=True 
end 
%scf 
maxiter 250 
end
%output
Print[P_Hirshfeld] = 1
end
% maxcore
4000
*xyz 1 1
Ir   0.58638227  -0.72390400   0.45441868 
C    0.02989275  -2.80462607   0.33953381 
C    0.11940520  -2.35650409   1.70839084 
C    2.19902194  -2.13792659   0.74587538 
C    1.29152669  -2.64351976  -0.25970167 
C    1.48864698  -2.00095189   1.95094615 
N   -1.04431675   0.17645857  -0.52088915 
C   -2.31375037   0.51335563   0.14170633 
C   -3.13560017   1.54871954  -0.60844031 
H   -3.96737388   1.86054056   0.02168472 
H   -3.57284677   1.15890774  -1.52917144 
H   -2.55601482   2.44211271  -0.84324165 
C   -3.11155131  -0.75957494   0.39628019 
H   -2.01836256   0.93711745   1.10305203 
H   -4.02381688  -0.51532502   0.93834087 
H   -3.39948408  -1.24098265  -0.53927968 
H   -2.55930067  -1.47653252   1.00213205 
C   -0.83530784   0.38388592  -1.76246540 
C    0.51785351   0.15240875  -2.22458039 
H   -1.60918500   0.74926480  -2.43146302 
C    1.62323649   0.52251574  -1.46730029 
C    2.82585253   0.09747188  -2.10304266 
S    0.93962225  -0.64802509  -3.67281429 
C    2.60968750  -0.53726542  -3.28517776 
H    1.54365307   1.39276169  -0.68429358 
H    3.81326221   0.30561001  -1.71732855 
H    3.34426105  -0.93003056  -3.97186789 
H   -0.86325579  -3.16404384  -0.15108274 
H   -0.66568016  -2.39003393   2.44953465 
H    1.88134899  -1.61048189   2.87879579 
O    1.29546737   2.46326964   0.27261911 
O    0.53552249   0.89994844   1.67135577 
C    0.89905208   2.10614220   1.37765682 
C    0.83303121   3.07062014   2.52911677 
H    0.78818424   4.09487469   2.16918518 
H    1.73662936   2.96770507   3.13314073 
H   -0.01434029   2.86670814   3.18052072 
H    3.24321533  -1.90736820   0.59509059 
H    1.54480188  -2.86411279  -1.28649664 
*
