39
Coordinates from ORCA-job reaction4-IEIP_ts_guess_scan_7-10_orca E -1288.400349017923
  Ir      0.604439     -0.721026      0.457020
  C       0.071259     -2.814898      0.360013
  C       0.034297     -2.352932      1.722999
  C       2.193281     -2.114058      0.938562
  C       1.382581     -2.651907     -0.128779
  C       1.365240     -1.961576      2.070094
  N      -1.049268      0.137306     -0.515167
  C      -2.324776      0.402380      0.171027
  C      -3.115043      1.553760     -0.432805
  H      -3.943628      1.798568      0.230323
  H      -3.555039      1.305755     -1.399696
  H      -2.508312      2.452953     -0.541983
  C      -3.151565     -0.877217      0.224006
  H      -2.043103      0.677760      1.188435
  H      -4.064775     -0.702200      0.791101
  H      -3.438129     -1.204074     -0.776423
  H      -2.616174     -1.690241      0.711768
  C      -0.877333      0.393409     -1.755169
  C       0.456816      0.208620     -2.255088
  H      -1.680182      0.762358     -2.386665
  C       1.538735      0.291020     -1.384950
  C       2.745567     -0.034552     -2.067645
  S       0.902048     -0.218665     -3.841260
  C       2.551355     -0.321809     -3.384610
  H       1.550356      1.254983     -0.584157
  H       3.724870     -0.000138     -1.612815
  H       3.296473     -0.567975     -4.126021
  H      -0.767209     -3.199438     -0.202665
  H      -0.812217     -2.385815      2.392480
  H       1.667198     -1.544314      3.020281
  O       1.501094      2.370630      0.187038
  O       0.544056      0.968096      1.616685
  C       1.006255      2.114272      1.290615
  C       0.953015      3.169494      2.356592
  H       0.934738      4.163543      1.917995
  H       1.851982      3.094515      2.971493
  H       0.096367      3.032536      3.012328
  H       3.249116     -1.895019      0.889732
  H       1.724985     -2.894912     -1.123948
39
Coordinates from ORCA-job reaction4-IEIP_ts_guess_scan_7-10_orca E -1288.400507304370
  Ir      0.607065     -0.722654      0.458802
  C       0.070290     -2.817676      0.365891
  C       0.030366     -2.354994      1.728204
  C       2.191549     -2.118399      0.948846
  C       1.383105     -2.657309     -0.119523
  C       1.360198     -1.963325      2.077808
  N      -1.048960      0.135989     -0.516625
  C      -2.323593      0.400709      0.170037
  C      -3.113923      1.551120     -0.435412
  H      -3.943221      1.796086      0.226741
  H      -3.552668      1.301896     -1.402582
  H      -2.507532      2.450503     -0.544934
  C      -3.149165     -0.879587      0.223905
  H      -2.041589      0.676811      1.187168
  H      -4.062207     -0.705239      0.791463
  H      -3.435995     -1.207057     -0.776245
  H      -2.612580     -1.691888      0.711628
  C      -0.879437      0.394027     -1.759198
  C       0.455206      0.216510     -2.264116
  H      -1.684029      0.765679     -2.386898
  C       1.534066      0.284792     -1.389365
  C       2.741640     -0.036036     -2.074078
  S       0.901959     -0.196284     -3.853550
  C       2.549914     -0.308578     -3.394435
  H       1.549021      1.256550     -0.585678
  H       3.720227     -0.007962     -1.617223
  H       3.296149     -0.548319     -4.136735
  H      -0.766981     -3.202441     -0.198425
  H      -0.817739     -2.386845      2.395604
  H       1.659955     -1.545143      3.028268
  O       1.504784      2.372817      0.184924
  O       0.543569      0.969501      1.618236
  C       1.008129      2.115485      1.290754
  C       0.957507      3.170876      2.356464
  H       0.940044      4.164943      1.917777
  H       1.857016      3.094813      2.970423
  H       0.101318      3.034907      3.012904
  H       3.247966     -1.901694      0.902997
  H       1.727944     -2.903394     -1.113080
39
Coordinates from ORCA-job reaction4-IEIP_ts_guess_scan_7-10_orca E -1288.400617854465
  Ir      0.604779     -0.723676      0.461811
  C       0.064011     -2.819408      0.377273
  C       0.019323     -2.354344      1.737890
  C       2.183571     -2.120734      0.965370
  C       1.378952     -2.662606     -0.103737
  C       1.346950     -1.961163      2.090432
  N      -1.046635      0.130729     -0.515593
  C      -2.322096      0.392900      0.170219
  C      -3.112781      1.544787     -0.432145
  H      -3.943006      1.787123      0.229843
  H      -3.550244      1.298308     -1.400559
  H      -2.506856      2.444898     -0.538192
  C      -3.147238     -0.887908      0.219842
  H      -2.041131      0.665837      1.188502
  H      -4.060592     -0.716024      0.787730
  H      -3.433539     -1.212281     -0.781453
  H      -2.610136     -1.701332      0.704979
  C      -0.877181      0.394246     -1.758731
  C       0.456820      0.222079     -2.270820
  H      -1.683239      0.769878     -2.381801
  C       1.535053      0.267432     -1.393532
  C       2.742364     -0.038340     -2.086593
  S       0.902805     -0.153160     -3.869217
  C       2.550555     -0.278908     -3.412974
  H       1.556106      1.250337     -0.587097
  H       3.721244     -0.021522     -1.629701
  H       3.296649     -0.501255     -4.160731
  H      -0.771341     -3.205219     -0.189124
  H      -0.831261     -2.383795      2.402103
  H       1.643185     -1.540095      3.040717
  O       1.519616      2.368452      0.181228
  O       0.539566      0.972920      1.615710
  C       1.014291      2.114290      1.287146
  C       0.966349      3.173334      2.348498
  H       0.956230      4.166153      1.906692
  H       1.863304      3.093885      2.965741
  H       0.106959      3.044005      3.001957
  H       3.240715     -1.906924      0.923853
  H       1.727245     -2.913709     -1.094795
39
Coordinates from ORCA-job reaction4-IEIP_ts_guess_scan_7-10_orca E -1288.400665635754
  Ir      0.606257     -0.727270      0.465404
  C       0.062921     -2.822780      0.388336
  C       0.014417     -2.354092      1.747263
  C       2.181527     -2.124956      0.980369
  C       1.379713     -2.669338     -0.089298
  C       1.340880     -1.960446      2.101990
  N      -1.046148      0.126977     -0.516545
  C      -2.323273      0.385646      0.168383
  C      -3.112734      1.541642     -0.427823
  H      -3.943772      1.780121      0.234512
  H      -3.549050      1.301419     -1.398315
  H      -2.506329      2.442172     -0.527418
  C      -3.150137     -0.894477      0.208667
  H      -2.044456      0.652311      1.188915
  H      -4.064490     -0.724993      0.775673
  H      -3.434724     -1.212409     -0.795186
  H      -2.615078     -1.711420      0.689875
  C      -0.877524      0.396695     -1.758276
  C       0.454364      0.228130     -2.274043
  H      -1.685164      0.774073     -2.378190
  C       1.532213      0.256807     -1.395831
  C       2.739301     -0.039538     -2.092734
  S       0.900436     -0.117866     -3.878556
  C       2.547692     -0.254407     -3.423678
  H       1.558799      1.244913     -0.589213
  H       3.717834     -0.034620     -1.634840
  H       3.293806     -0.465139     -4.174747
  H      -0.770920     -3.209623     -0.179562
  H      -0.838242     -2.380471      2.408911
  H       1.634608     -1.536294      3.051699
  O       1.528780      2.364550      0.177174
  O       0.542162      0.975690      1.613451
  C       1.020850      2.113610      1.283118
  C       0.976279      3.176602      2.340325
  H       0.968250      4.167946      1.895221
  H       1.873516      3.097104      2.957161
  H       0.116932      3.051337      2.994618
  H       3.239271     -1.913634      0.942239
  H       1.730600     -2.924782     -1.078310
39
Coordinates from ORCA-job reaction4-IEIP_ts_guess_scan_7-10_orca E -1288.400697801641
  Ir      0.605290     -0.730111      0.468143
  C       0.061580     -2.824609      0.394733
  C       0.007768     -2.353473      1.752541
  C       2.178293     -2.126706      0.993458
  C       1.380612     -2.672866     -0.078171
  C       1.332691     -1.959090      2.111132
  N      -1.044897      0.123564     -0.515550
  C      -2.323151      0.378950      0.169165
  C      -3.111337      1.539587     -0.420021
  H      -3.942388      1.774331      0.243575
  H      -3.547632      1.306139     -1.392177
  H      -2.504205      2.440287     -0.513574
  C      -3.151505     -0.900486      0.199591
  H      -2.046056      0.638968      1.191894
  H      -4.066690     -0.733781      0.766052
  H      -3.434630     -1.211346     -0.806900
  H      -2.618270     -1.721421      0.676117
  C      -0.876577      0.398227     -1.755630
  C       0.453170      0.230701     -2.273861
  H      -1.685360      0.776653     -2.373569
  C       1.532300      0.245571     -1.396983
  C       2.738849     -0.040219     -2.098260
  S       0.898356     -0.089350     -3.883775
  C       2.545611     -0.234452     -3.432401
  H       1.563828      1.236466     -0.590812
  H       3.717589     -0.044975     -1.640958
  H       3.290886     -0.434748     -4.187173
  H      -0.769937     -3.212291     -0.175991
  H      -0.847602     -2.377672      2.410756
  H       1.622894     -1.532442      3.060826
  O       1.538720      2.357817      0.173241
  O       0.542908      0.977564      1.609505
  C       1.026066      2.111793      1.277893
  C       0.982537      3.179948      2.330230
  H       0.976701      4.169300      1.880757
  H       1.879155      3.101628      2.948120
  H       0.122361      3.059140      2.984298
  H       3.236430     -1.916682      0.959798
  H       1.735010     -2.930726     -1.065281
39
Coordinates from ORCA-job reaction4-IEIP_ts_guess_scan_7-10_orca E -1288.400708496080
  Ir      0.605056     -0.731629      0.469229
  C       0.062484     -2.825487      0.394869
  C       0.004222     -2.353801      1.752494
  C       2.177375     -2.127108      1.000306
  C       1.383219     -2.673702     -0.073709
  C       1.327977     -1.959060      2.115072
  N      -1.044522      0.122720     -0.514460
  C      -2.323038      0.376129      0.170740
  C      -3.110360      1.539587     -0.414265
  H      -3.941120      1.772411      0.250369
  H      -3.546984      1.310115     -1.387217
  H      -2.502607      2.440183     -0.504654
  C      -3.152132     -0.902938      0.195207
  H      -2.046694      0.632252      1.194630
  H      -4.067746     -0.738134      0.761554
  H      -3.434552     -1.209370     -0.812843
  H      -2.619868     -1.726372      0.668524
  C      -0.876713      0.399365     -1.754004
  C       0.452085      0.231969     -2.272961
  H      -1.686014      0.777891     -2.371235
  C       1.532130      0.241209     -1.397351
  C       2.738132     -0.041881     -2.099929
  S       0.896681     -0.079463     -3.884900
  C       2.543867     -0.227582     -3.435410
  H       1.566838      1.231802     -0.591375
  H       3.717029     -0.050781     -1.643132
  H       3.288595     -0.423856     -4.191803
  H      -0.766909     -3.213607     -0.178643
  H      -0.853286     -2.377602      2.407952
  H       1.615169     -1.531676      3.065363
  O       1.544330      2.354182      0.171247
  O       0.544063      0.978450      1.607455
  C       1.028962      2.111268      1.274966
  C       0.984372      3.182455      2.324498
  H       0.977851      4.170464      1.872100
  H       1.881013      3.106634      2.942634
  H       0.124198      3.062989      2.978818
  H       3.235628     -1.917158      0.970304
  H       1.740642     -2.931674     -1.059698
39
Coordinates from ORCA-job reaction4-IEIP_ts_guess_scan_7-10_orca E -1288.400718301069
  Ir      0.605253     -0.732712      0.470087
  C       0.065674     -2.826332      0.391831
  C      -0.000098     -2.355108      1.749588
  C       2.177023     -2.126242      1.008997
  C       1.388969     -2.673145     -0.069320
  C       1.321414     -1.959381      2.119244
  N      -1.044140      0.122475     -0.512741
  C      -2.322565      0.373738      0.173472
  C      -3.108820      1.540507     -0.406655
  H      -3.939056      1.771411      0.259309
  H      -3.545992      1.315552     -1.380407
  H      -2.500136      2.440789     -0.493686
  C      -3.152541     -0.904839      0.191241
  H      -2.046664      0.625378      1.198555
  H      -4.068388     -0.742402      0.757931
  H      -3.434642     -1.205916     -0.818515
  H      -2.621167     -1.731284      0.660315
  C      -0.877373      0.400838     -1.752061
  C       0.450561      0.233749     -2.272091
  H      -1.687317      0.779629     -2.368286
  C       1.531819      0.237378     -1.398174
  C       2.736749     -0.044530     -2.102384
  S       0.893990     -0.069668     -3.886255
  C       2.540527     -0.224988     -3.438612
  H       1.570909      1.226797     -0.591456
  H       3.716042     -0.057701     -1.646634
  H       3.284116     -0.419934     -4.196492
  H      -0.759989     -3.215306     -0.186455
  H      -0.860979     -2.379783      2.400598
  H       1.603315     -1.531801      3.071046
  O       1.551713      2.350212      0.169731
  O       0.545131      0.979348      1.605412
  C       1.032074      2.110928      1.272005
  C       0.984733      3.185364      2.318328
  H       0.976009      4.171746      1.862397
  H       1.881584      3.113780      2.936621
  H       0.124759      3.066287      2.972950
  H       3.235277     -1.915577      0.985000
  H       1.751595     -2.930069     -1.053694
39
Coordinates from ORCA-job reaction4-IEIP_ts_guess_scan_7-10_orca E -1288.400729913507
  Ir      0.605949     -0.734236      0.471462
  C       0.071784     -2.828001      0.385104
  C      -0.008498     -2.358173      1.743104
  C       2.176003     -2.124630      1.025131
  C       1.399832     -2.672028     -0.061403
  C       1.308384     -1.960619      2.126668
  N      -1.043267      0.122624     -0.509367
  C      -2.321381      0.370633      0.178524
  C      -3.105924      1.542631     -0.393820
  H      -3.935374      1.770602      0.274132
  H      -3.543821      1.324788     -1.368848
  H      -2.495650      2.442312     -0.475538
  C      -3.152788     -0.907075      0.185844
  H      -2.045923      0.615104      1.205400
  H      -4.068668     -0.748661      0.753672
  H      -3.434985     -1.199321     -0.826483
  H      -2.622449     -1.738382      0.647506
  C      -0.878446      0.403010     -1.748667
  C       0.448037      0.235516     -2.271034
  H      -1.689519      0.782119     -2.363198
  C       1.531421      0.230687     -1.400016
  C       2.734241     -0.049219     -2.107908
  S       0.887749     -0.062513     -3.887876
  C       2.534699     -0.219334     -3.445399
  H       1.578462      1.218164     -0.591190
  H       3.714641     -0.066467     -1.654787
  H       3.276476     -0.409389     -4.206320
  H      -0.746632     -3.218614     -0.202284
  H      -0.875760     -2.385084      2.385529
  H       1.579849     -1.533180      3.081586
  O       1.565199      2.343261      0.167636
  O       0.547071      0.980635      1.602572
  C       1.037704      2.110215      1.267376
  C       0.984883      3.190031      2.308031
  H       0.971066      4.173542      1.845949
  H       1.882520      3.126875      2.926030
  H       0.125704      3.070644      2.963543
  H       3.234157     -1.912609      1.012682
  H       1.772624     -2.926668     -1.042600
39
Coordinates from ORCA-job reaction4-IEIP_ts_guess_scan_7-10_orca E -1288.400741622912
  Ir      0.607084     -0.734268      0.471792
  C       0.079076     -2.829202      0.377459
  C      -0.015627     -2.361065      1.735541
  C       2.175545     -2.121241      1.039754
  C       1.411421     -2.669746     -0.054501
  C       1.296071     -1.960894      2.132760
  N      -1.043086      0.123162     -0.506605
  C      -2.321023      0.367833      0.182646
  C      -3.104546      1.544062     -0.382703
  H      -3.933752      1.768901      0.286599
  H      -3.542462      1.332429     -1.359078
  H      -2.493273      2.443512     -0.459231
  C      -3.153187     -0.909382      0.180821
  H      -2.045910      0.605836      1.211092
  H      -4.068722     -0.755219      0.750394
  H      -3.436092     -1.193504     -0.833628
  H      -2.622935     -1.744808      0.635148
  C      -0.880034      0.405748     -1.745843
  C       0.445442      0.238750     -2.270812
  H      -1.692102      0.785896     -2.358405
  C       1.530586      0.227556     -1.402252
  C       2.730919     -0.054545     -2.113305
  S       0.881554     -0.053379     -3.890122
  C       2.527905     -0.220335     -3.450964
  H       1.585961      1.212864     -0.590169
  H       3.712259     -0.076706     -1.662438
  H       3.267493     -0.411383     -4.213770
  H      -0.732007     -3.222043     -0.218516
  H      -0.888916     -2.391137      2.369623
  H       1.556825     -1.533760      3.090817
  O       1.579486      2.338738      0.167593
  O       0.548810      0.982872      1.600352
  C       1.043846      2.110644      1.264524
  C       0.985889      3.194274      2.300806
  H       0.966776      4.175563      1.834066
  H       1.884580      3.138863      2.917968
  H       0.127771      3.073500      2.957342
  H       3.233368     -1.907385      1.038469
  H       1.794376     -2.921807     -1.032486
39
Coordinates from ORCA-job reaction4-IEIP_ts_guess_scan_7-10_orca E -1288.400755600040
  Ir      0.609149     -0.733433      0.472159
  C       0.091799     -2.831272      0.366134
  C      -0.026210     -2.365861      1.723792
  C       2.174742     -2.114337      1.063388
  C       1.430471     -2.665664     -0.042497
  C       1.276228     -1.960288      2.142551
  N      -1.043412      0.123774     -0.502946
  C      -2.321276      0.364014      0.187780
  C      -3.103252      1.546032     -0.367773
  H      -3.932748      1.766107      0.302701
  H      -3.540324      1.343294     -1.346402
  H      -2.490690      2.445261     -0.436140
  C      -3.154690     -0.912333      0.173388
  H      -2.046614      0.592739      1.218433
  H      -4.069056     -0.764375      0.746479
  H      -3.439720     -1.184547     -0.843738
  H      -2.623993     -1.753548      0.616426
  C      -0.882742      0.409772     -1.741859
  C       0.441158      0.243154     -2.271452
  H      -1.696207      0.792147     -2.351207
  C       1.528882      0.223211     -1.406384
  C       2.725155     -0.061975     -2.123470
  S       0.870041     -0.043992     -3.893745
  C       2.516677     -0.221751     -3.460915
  H       1.597660      1.205321     -0.588200
  H       3.708157     -0.089968     -1.676472
  H       3.252793     -0.413784     -4.226805
  H      -0.707329     -3.228455     -0.242883
  H      -0.908843     -2.401689      2.344504
  H       1.519183     -1.533366      3.105400
  O       1.602961      2.331283      0.169440
  O       0.550694      0.986014      1.597450
  C       1.054079      2.110347      1.261657
  C       0.989374      3.199208      2.291682
  H       0.961516      4.177379      1.818628
  H       1.890466      3.155690      2.906257
  H       0.133724      3.075716      2.950737
  H       3.231702     -1.897151      1.079689
  H       1.829865     -2.913486     -1.015045
39
Coordinates from ORCA-job reaction4-IEIP_ts_guess_scan_7-10_orca E -1288.400759533654
  Ir      0.609836     -0.732632      0.471935
  C       0.099653     -2.832711      0.360249
  C      -0.033496     -2.368256      1.716998
  C       2.173201     -2.108874      1.079172
  C       1.442112     -2.663272     -0.033464
  C       1.262396     -1.958283      2.149145
  N      -1.044408      0.123512     -0.501380
  C      -2.322591      0.360607      0.189839
  C      -3.104051      1.545827     -0.359529
  H      -3.934350      1.761996      0.311189
  H      -3.539913      1.348826     -1.339866
  H      -2.491345      2.445399     -0.421890
  C      -3.156212     -0.915545      0.167682
  H      -2.048497      0.583472      1.221932
  H      -4.069466     -0.772005      0.743648
  H      -3.443125     -1.180202     -0.850909
  H      -2.624453     -1.760083      0.603132
  C      -0.884679      0.412539     -1.739601
  C       0.438218      0.246262     -2.272139
  H      -1.698813      0.796786     -2.346936
  C       1.527453      0.221017     -1.409164
  C       2.721191     -0.065874     -2.130298
  S       0.862077     -0.037641     -3.896007
  C       2.509556     -0.220765     -3.467607
  H       1.605508      1.201194     -0.587252
  H       3.705104     -0.097683     -1.685475
  H       3.243551     -0.412579     -4.235555
  H      -0.691756     -3.233322     -0.256496
  H      -0.922056     -2.407453      2.328984
  H       1.493481     -1.530630      3.114602
  O       1.620256      2.326249      0.171609
  O       0.551514      0.988831      1.595049
  C       1.062434      2.109958      1.260432
  C       0.995638      3.201942      2.286878
  H       0.961951      4.178319      1.810361
  H       1.899256      3.165580      2.898204
  H       0.142600      3.076935      2.948918
  H       3.229447     -1.889492      1.106556
  H       1.852149     -2.908759     -1.002207
39
Coordinates from ORCA-job reaction4-IEIP_ts_guess_scan_7-10_orca E -1288.400761708998
  Ir      0.609589     -0.732073      0.471695
  C       0.104420     -2.833538      0.357765
  C      -0.037587     -2.369242      1.713692
  C       2.172061     -2.104559      1.088590
  C       1.448911     -2.661573     -0.027635
  C       1.254230     -1.955799      2.153174
  N      -1.045823      0.122761     -0.501314
  C      -2.324262      0.358392      0.190032
  C      -3.105510      1.544975     -0.356479
  H      -3.936525      1.758831      0.314080
  H      -3.540445      1.350895     -1.337811
  H      -2.493019      2.444921     -0.415424
  C      -3.157891     -0.917744      0.164432
  H      -2.050515      0.578593      1.222806
  H      -4.070260     -0.776360      0.742327
  H      -3.446248     -1.178789     -0.854676
  H      -2.625315     -1.763786      0.595951
  C      -0.886285      0.413715     -1.738920
  C       0.436139      0.247696     -2.272780
  H      -1.700581      0.799130     -2.345353
  C       1.526117      0.219759     -1.410854
  C       2.718737     -0.067093     -2.134164
  S       0.857358     -0.033929     -3.897329
  C       2.505677     -0.218944     -3.471456
  H       1.609505      1.198894     -0.587338
  H       3.702985     -0.100879     -1.690184
  H       3.238634     -0.409848     -4.240598
  H      -0.682529     -3.236605     -0.263043
  H      -0.929575     -2.410173      2.320553
  H       1.478215     -1.527049      3.119824
  O       1.630922      2.322488      0.173526
  O       0.550915      0.990337      1.593162
  C       1.067891      2.108843      1.260247
  C       1.002081      3.202278      2.285282
  H       0.964483      4.177833      1.807295
  H       1.908260      3.169631      2.893024
  H       0.151722      3.076479      2.950554
  H       3.227778     -1.883548      1.122186
  H       1.865108     -2.905727     -0.994098
39
Coordinates from ORCA-job reaction4-IEIP_ts_guess_scan_7-10_orca E -1288.400762696563
  Ir      0.608498     -0.731687      0.471154
  C       0.106832     -2.833946      0.356759
  C      -0.040549     -2.369253      1.711995
  C       2.170721     -2.101098      1.094292
  C       1.452514     -2.660436     -0.023843
  C       1.248734     -1.953126      2.155590
  N      -1.047451      0.121969     -0.502012
  C      -2.326130      0.356555      0.189330
  C      -3.107761      1.543355     -0.355959
  H      -3.939455      1.755438      0.314332
  H      -3.541938      1.350652     -1.337898
  H      -2.495955      2.443894     -0.412862
  C      -3.159154     -0.919978      0.162386
  H      -2.052662      0.575801      1.222389
  H      -4.070862     -0.779983      0.741661
  H      -3.448541     -1.179482     -0.856810
  H      -2.625591     -1.766469      0.591823
  C      -0.887719      0.414233     -1.739120
  C       0.434619      0.248495     -2.273231
  H      -1.701901      0.800191     -2.345387
  C       1.524869      0.219615     -1.411740
  C       2.717186     -0.066785     -2.135851
  S       0.854843     -0.031863     -3.897948
  C       2.503765     -0.217064     -3.473214
  H       1.611517      1.198312     -0.588121
  H       3.701426     -0.101316     -1.691900
  H       3.236324     -0.407041     -4.242951
  H      -0.677485     -3.238815     -0.266199
  H      -0.934681     -2.410756      2.315657
  H       1.468334     -1.523096      3.122681
  O       1.638436      2.320163      0.175137
  O       0.549732      0.991851      1.591353
  C       1.072253      2.108107      1.260482
  C       1.009312      3.201851      2.285502
  H       0.967882      4.177108      1.807158
  H       1.918621      3.171505      2.888669
  H       0.162301      3.075161      2.954821
  H       3.226076     -1.878923      1.131483
  H       1.872411     -2.903948     -0.988868
39
Coordinates from ORCA-job reaction4-IEIP_ts_guess_scan_7-10_orca E -1288.400764254477
  Ir      0.607324     -0.731349      0.470812
  C       0.107903     -2.833917      0.356456
  C      -0.041500     -2.369039      1.711437
  C       2.170185     -2.098714      1.096153
  C       1.453947     -2.659353     -0.022615
  C       1.246799     -1.951279      2.156325
  N      -1.048804      0.121505     -0.502953
  C      -2.327515      0.356013      0.188370
  C      -3.109530      1.542279     -0.357405
  H      -3.941560      1.753915      0.312626
  H      -3.543372      1.349346     -1.339447
  H      -2.498232      2.443171     -0.414094
  C      -3.160087     -0.920835      0.162138
  H      -2.054060      0.575924      1.221297
  H      -4.071488     -0.780938      0.741927
  H      -3.449947     -1.180741     -0.856812
  H      -2.626027     -1.767032      0.591516
  C      -0.888864      0.413860     -1.739956
  C       0.433691      0.248319     -2.273593
  H      -1.702844      0.799696     -2.346571
  C       1.523845      0.219993     -1.411988
  C       2.716456     -0.065933     -2.135796
  S       0.854312     -0.032158     -3.898119
  C       2.503382     -0.216494     -3.473210
  H       1.611401      1.198717     -0.589029
  H       3.700515     -0.100030     -1.691424
  H       3.236021     -0.406148     -4.242948
  H      -0.675409     -3.239751     -0.267144
  H      -0.936457     -2.410676      2.313870
  H       1.464717     -1.520469      3.123450
  O       1.641476      2.319052      0.176335
  O       0.547980      0.992479      1.590286
  C       1.074173      2.107423      1.261122
  C       1.014237      3.200525      2.287093
  H       0.969050      4.175860      1.809186
  H       1.926574      3.171653      2.885731
  H       0.170565      3.072469      2.960316
  H       3.225318     -1.875672      1.134540
  H       1.875196     -2.902480     -0.987143
39
Coordinates from ORCA-job reaction4-IEIP_ts_guess_scan_7-10_orca E -1288.400765196552
  Ir      0.606245     -0.731134      0.470564
  C       0.108062     -2.833803      0.356323
  C      -0.041970     -2.368827      1.711267
  C       2.169792     -2.097342      1.096550
  C       1.454185     -2.658630     -0.022354
  C       1.246053     -1.950248      2.156441
  N      -1.049708      0.121375     -0.503621
  C      -2.328435      0.355771      0.187658
  C      -3.110854      1.541522     -0.358679
  H      -3.943044      1.753016      0.311210
  H      -3.544529      1.348138     -1.340704
  H      -2.499921      2.442646     -0.415548
  C      -3.160556     -0.921365      0.162014
  H      -2.055013      0.576387      1.220434
  H      -4.071964     -0.781514      0.741807
  H      -3.450397     -1.181785     -0.856807
  H      -2.626240     -1.767254      0.591679
  C      -0.889644      0.413457     -1.740698
  C       0.433176      0.248079     -2.273750
  H      -1.703497      0.798860     -2.347737
  C       1.523128      0.220575     -1.411875
  C       2.716125     -0.065185     -2.135060
  S       0.854632     -0.033047     -3.898070
  C       2.503512     -0.216594     -3.472507
  H       1.610845      1.199571     -0.589711
  H       3.700028     -0.098512     -1.690295
  H       3.236351     -0.406303     -4.242050
  H      -0.674862     -3.240133     -0.267447
  H      -0.937213     -2.410401      2.313272
  H       1.463474     -1.519051      3.123503
  O       1.643068      2.318839      0.177126
  O       0.546495      0.993167      1.589555
  C       1.075282      2.107337      1.261638
  C       1.017639      3.199629      2.288606
  H       0.967654      4.174991      1.811154
  H       1.933189      3.172991      2.882409
  H       0.177632      3.069396      2.965926
  H       3.224807     -1.873792      1.135254
  H       1.875845     -2.901638     -0.986735
39
Coordinates from ORCA-job reaction4-IEIP_ts_guess_scan_7-10_orca E -1288.400766295666
  Ir      0.605569     -0.730878      0.470577
  C       0.108053     -2.833607      0.356183
  C      -0.041825     -2.368820      1.711253
  C       2.169780     -2.096625      1.096125
  C       1.454053     -2.657935     -0.022722
  C       1.246268     -1.949966      2.156225
  N      -1.050186      0.121502     -0.503967
  C      -2.328907      0.355981      0.187226
  C      -3.111467      1.541399     -0.359714
  H      -3.943648      1.753178      0.310095
  H      -3.545110      1.347475     -1.341645
  H      -2.500573      2.442519     -0.417053
  C      -3.160861     -0.921248      0.162040
  H      -2.055506      0.577216      1.219867
  H      -4.072476     -0.781238      0.741471
  H      -3.450382     -1.182171     -0.856748
  H      -2.626633     -1.766928      0.592226
  C      -0.890107      0.413001     -1.741242
  C       0.432940      0.247727     -2.273837
  H      -1.703930      0.797909     -2.348615
  C       1.522692      0.221008     -1.411655
  C       2.716009     -0.064902     -2.134226
  S       0.855222     -0.034303     -3.897979
  C       2.503766     -0.217331     -3.471654
  H       1.610118      1.200224     -0.589915
  H       3.699823     -0.097518     -1.689221
  H       3.236803     -0.407443     -4.240920
  H      -0.674792     -3.240124     -0.267563
  H      -0.937002     -2.410500      2.313347
  H       1.463856     -1.518830      3.123276
  O       1.643578      2.318834      0.177828
  O       0.545199      0.993479      1.589295
  C       1.075525      2.107294      1.262186
  C       1.019087      3.198909      2.289890
  H       0.963055      4.174131      1.812730
  H       1.937992      3.175746      2.878619
  H       0.183057      3.065609      2.971454
  H       3.224728     -1.872742      1.134688
  H       1.875599     -2.900841     -0.987182
