39
Generated by autodE on: 2023-08-14. E = -1288.400379 Ha
Ir    0.61640  -0.71859   0.44661
C     0.09666  -2.81957   0.34185
C     0.03978  -2.35934   1.70483
C     2.20609  -2.10300   0.94793
C     1.41291  -2.64886  -0.12832
C     1.36167  -1.95762   2.06893
N    -1.04395   0.14046  -0.51548
C    -2.31199   0.41588   0.17888
C    -3.09305   1.57686  -0.41801
H    -3.91718   1.82745   0.24849
H    -3.53797   1.33623  -1.38449
H    -2.47733   2.47005  -0.52582
C    -3.14812  -0.85772   0.23114
H    -2.02104   0.68424   1.19536
H    -4.05236  -0.68080   0.81175
H    -3.45000  -1.17357  -0.76830
H    -2.61178  -1.67899   0.70416
C    -0.88157   0.38779  -1.76038
C     0.45120   0.19365  -2.26949
H    -1.68654   0.75981  -2.38712
C     1.53656   0.29433  -1.40198
C     2.74297  -0.04463  -2.08277
S     0.89080  -0.27856  -3.84101
C     2.54416  -0.36871  -3.38898
H     1.53702   1.24539  -0.63793
H     3.72348   0.00558  -1.63212
H     3.28563  -0.63411  -4.12724
H    -0.73169  -3.21127  -0.23077
H    -0.81526  -2.39690   2.36311
H     1.64784  -1.53744   3.02273
O     1.44046   2.41228   0.18051
O     0.54733   0.96057   1.61457
C     0.97702   2.12577   1.28858
C     0.91751   3.15921   2.37703
H     0.87988   4.16097   1.95768
H     1.82299   3.08637   2.98255
H     0.06943   2.99750   3.03848
H     3.26175  -1.88060   0.91446
H     1.76967  -2.89093  -1.11871
