! Opt PBEh-3c
%geom Constraints
{ B 0 20 2.257142857142857 C }
{ B 24 30 1.4714285714285715 C }
    end
end
%output 
xyzfile=True 
end 
%scf 
maxiter 250 
end
%output
Print[P_Hirshfeld] = 1
end
% maxcore
4000
*xyz 1 1
Ir   0.61657376  -0.70768498   0.42439819 
C    0.07188269  -2.80330483   0.34790536 
C    0.10584931  -2.34284430   1.71100379 
C    2.22001947  -2.10924037   0.81773925 
C    1.35523854  -2.64413177  -0.20882973 
C    1.45479403  -1.95576173   1.99106580 
N   -1.04627628   0.15968291  -0.52919749 
C   -2.31057684   0.46149719   0.15920310 
C   -3.10927808   1.57628462  -0.49753465 
H   -3.93213468   1.85441241   0.15958586 
H   -3.55798898   1.27627362  -1.44574769 
H   -2.50621760   2.47016952  -0.65905488 
C   -3.13144828  -0.81551774   0.29634644 
H   -2.01124419   0.79118927   1.15515195 
H   -4.03784143  -0.60825727   0.86324001 
H   -3.42920336  -1.20197708  -0.67921202 
H   -2.58746207  -1.59544140   0.82703476 
C   -0.87186402   0.38740951  -1.77458213 
C    0.46978795   0.17080083  -2.25815891 
H   -1.66358870   0.75779271  -2.41873253 
C    1.55020401   0.34695481  -1.39386182 
C    2.76489507  -0.02954531  -2.04214910 
S    0.92318615  -0.42423216  -3.78199149 
C    2.57711102  -0.46090748  -3.31706541 
H    1.52215970   1.28009028  -0.66143900 
H    3.74155621   0.06972087  -1.59122759 
H    3.32417796  -0.77672778  -4.02941867 
H   -0.79705670  -3.18146367  -0.17129567 
H   -0.70660754  -2.37073409   2.42162305 
H    1.80707722  -1.54132184   2.92482921 
O    1.35094009   2.46496962   0.21838583 
O    0.53491786   0.94106168   1.62542263 
C    0.92557793   2.13138999   1.32352889 
C    0.86236896   3.12016032   2.45415051 
H    0.83660236   4.13816185   2.07529222 
H    1.75845239   3.01440676   3.06875310 
H    0.00530762   2.93986782   3.09962043 
H    3.27204776  -1.89030062   0.71414164 
H    1.64743071  -2.89371219  -1.21818316 
*
