39
Generated by autodE on: 2023-08-15. E = -1288.403119 Ha
Ir    0.60495  -0.73432   0.45402
C     0.12029  -2.84160   0.36296
C    -0.08648  -2.37574   1.70987
C     2.14580  -2.08208   1.17714
C     1.48317  -2.66457   0.04072
C     1.17176  -1.93476   2.19781
N    -1.06272   0.11155  -0.50599
C    -2.34336   0.31190   0.19122
C    -3.13364   1.51233  -0.31051
H    -3.96874   1.69091   0.36507
H    -3.56304   1.35467  -1.30079
H    -2.52890   2.41922  -0.33025
C    -3.16752  -0.96841   0.11453
H    -2.07427   0.49599   1.23236
H    -4.08078  -0.85825   0.69793
H    -3.45382  -1.19021  -0.91437
H    -2.62815  -1.82768   0.50980
C    -0.90626   0.45068  -1.73267
C     0.41144   0.29363  -2.27171
H    -1.72062   0.86252  -2.32070
C     1.47612   0.11814  -1.39461
C     2.67622  -0.12478  -2.12306
S     0.86378   0.19864  -3.90813
C     2.49147  -0.10144  -3.47370
H     1.64427   1.15359  -0.58427
H     3.64739  -0.25260  -1.66744
H     3.23684  -0.22640  -4.24444
H    -0.63025  -3.26613  -0.28776
H    -1.00527  -2.41838   2.27476
H     1.34452  -1.49007   3.16779
O     1.75828   2.27297   0.14870
O     0.55450   1.02404   1.54138
C     1.14057   2.10401   1.22002
C     1.09976   3.22717   2.21248
H     0.98157   4.18154   1.70416
H     2.05152   3.26276   2.74527
H     0.30570   3.09017   2.94089
H     3.19811  -1.85994   1.26397
H     1.94518  -2.91987  -0.90173
