! Opt PBEh-3c
%geom Constraints
{ B 0 20 2.085714285714286 C }
{ B 24 30 1.3142857142857143 C }
    end
end
%output 
xyzfile=True 
end 
%scf 
maxiter 250 
end
%output
Print[P_Hirshfeld] = 1
end
% maxcore
4000
%pal nprocs 2
end
*xyz 1 1
Ir   0.60771117  -0.74367235   0.42824312 
C    0.12760266  -2.85255013   0.36415854 
C   -0.10641916  -2.39404299   1.70930613 
C    2.13196425  -2.07789504   1.21326582 
C    1.49963095  -2.67532723   0.07117476 
C    1.13126271  -1.93640140   2.21579100 
N   -1.07213546   0.10447962  -0.50936809 
C   -2.34928087   0.28756706   0.19707601 
C   -3.14382632   1.49765297  -0.27364953 
H   -3.97842345   1.65677806   0.40727921 
H   -3.57359508   1.36368245  -1.26724521 
H   -2.54162499   2.40651494  -0.27132590 
C   -3.17144364  -0.99222279   0.09507199 
H   -2.07603093   0.44888820   1.24106905 
H   -4.08242673  -0.89758027   0.68476937 
H   -3.46134057  -1.19093903  -0.93749663 
H   -2.62815772  -1.85914174   0.46746206 
C   -0.91802345   0.47708357  -1.72757233 
C    0.39846433   0.31701098  -2.26457208 
H   -1.72854281   0.91413373  -2.30184668 
C    1.43133731   0.03749060  -1.37237924 
C    2.64603571  -0.17360482  -2.09149855 
S    0.89388853   0.35290256  -3.88932491 
C    2.49990630  -0.02698262  -3.43912702 
H    1.65294445   1.17262208  -0.63206028 
H    3.60097062  -0.36985027  -1.62568368 
H    3.26417647  -0.10605008  -4.19736465 
H   -0.60469378  -3.29088512  -0.29802163 
H   -1.03713395  -2.43794543   2.25382227 
H    1.28077346  -1.48519300   3.18657908 
O    1.76950715   2.28661372   0.08245899 
O    0.58344528   1.03929852   1.49358089 
C    1.16316771   2.11444647   1.16617933 
C    1.14271514   3.24348819   2.15155846 
H    1.00980761   4.19512979   1.64162401 
H    2.10646372   3.28447620   2.66200131 
H    0.36558112   3.10694356   2.89783160 
H    3.18203341  -1.85750337   1.32681060 
H    1.98307888  -2.94022560  -0.85783718 
*
