! Opt PBEh-3c
%geom Constraints
{ B 0 20 2.3857142857142857 C }
{ B 24 30 1.3 C }
    end
end
%output 
xyzfile=True 
end 
%scf 
maxiter 250 
end
%output
Print[P_Hirshfeld] = 1
end
% maxcore
4000
*xyz 1 1
Ir   0.59085034  -0.74237592   0.51134970 
C    0.08330809  -2.83593522   0.37730675 
C   -0.04484557  -2.37064929   1.73536406 
C    2.16026556  -2.12005847   1.09554900 
C    1.42322426  -2.66378266  -0.02011542 
C    1.25798213  -1.97233573   2.16926280 
N   -1.03970830   0.11535655  -0.49464684 
C   -2.32604814   0.36185460   0.18059063 
C   -3.09733277   1.54411648  -0.38862773 
H   -3.93378288   1.77023484   0.27122199 
H   -3.52418935   1.33976340  -1.37137573 
H   -2.48053531   2.44066781  -0.45343484 
C   -3.16298932  -0.91195727   0.16308939 
H   -2.06342241   0.59513689   1.21341832 
H   -4.08143226  -0.76012265   0.72857584 
H   -3.44061517  -1.18655659  -0.85545045 
H   -2.63811432  -1.75349613   0.61271278 
C   -0.87115117   0.38344923  -1.73611104 
C    0.45257572   0.23087472  -2.27391155 
H   -1.68859870   0.74566271  -2.35330696 
C    1.56707358   0.30310673  -1.45127950 
C    2.74761613   0.01246101  -2.18749300 
S    0.84101095  -0.12783680  -3.89700721 
C    2.50483554  -0.22736203  -3.50781102 
H    1.61375399   1.25185425  -0.57224003 
H    3.74368128   0.03796778  -1.77010317 
H    3.22408281  -0.43815171  -4.28477065 
H   -0.71242118  -3.22982888  -0.23819886 
H   -0.93178718  -2.41020997   2.35007956 
H    1.49349305  -1.55197655   3.13682795 
O    1.61404805   2.31574500   0.19943564 
O    0.54319949   0.97971275   1.62482999 
C    1.06073694   2.09780526   1.29076942 
C    1.00932935   3.18708988   2.32037738 
H    0.93635683   4.16240900   1.84572149 
H    1.93775952   3.17269266   2.89445039 
H    0.18572131   3.04453174   3.01507399 
H    3.21559778  -1.89470688   1.11426659 
H    1.82984131  -2.89596058  -0.99364956 
*
