39
Generated by autodE on: 2023-08-13. E = -1288.398919 Ha
Ir    0.59674  -0.71755   0.45073
C     0.04625  -2.80317   0.34898
C     0.10876  -2.35011   1.71595
C     2.20605  -2.12575   0.78801
C     1.31853  -2.64222  -0.22948
C     1.46963  -1.98218   1.97816
N    -1.04617   0.16348  -0.52200
C    -2.31629   0.48087   0.14932
C    -3.12163   1.56213  -0.55330
H    -3.94966   1.85780   0.08954
H    -3.56380   1.22273  -1.49137
H    -2.52662   2.45525  -0.74641
C    -3.12821  -0.79535   0.33469
H    -2.02362   0.85309   1.13240
H    -4.04059  -0.57080   0.88510
H    -3.41574  -1.22522  -0.62570
H    -2.58422  -1.54794   0.90365
C    -0.85407   0.37625  -1.76658
C     0.49373   0.16037  -2.24147
H    -1.63990   0.73589  -2.42448
C     1.58941   0.44875  -1.43403
C     2.79734   0.05028  -2.07697
S     0.92953  -0.54250  -3.73110
C     2.59315  -0.49224  -3.30671
H     1.52802   1.34846  -0.65903
H     3.78074   0.21211  -1.66006
H     3.33348  -0.84616  -4.00818
H    -0.83558  -3.16974  -0.15662
H    -0.68976  -2.38209   2.44239
H     1.84324  -1.58251   2.91001
O     1.33193   2.45516   0.24574
O     0.53385   0.92260   1.65543
C     0.91830   2.11643   1.35331
C     0.86295   3.09915   2.48910
H     0.82549   4.11844   2.11460
H     1.76786   2.99764   3.09146
H     0.01587   2.91074   3.14533
H     3.25401  -1.89967   0.65939
H     1.59040  -2.87323  -1.24906
