39
Coordinates from ORCA-job reaction4-IEIP_ts_guess_scan_0-9_orca E -1288.392781033816
  Ir      0.565872     -0.740077      0.498832
  C       0.009867     -2.816058      0.357796
  C       0.093280     -2.379194      1.731161
  C       2.177853     -2.155768      0.783038
  C       1.274103     -2.648022     -0.232942
  C       1.463238     -2.030719      1.986043
  N      -1.041167      0.163775     -0.506495
  C      -2.319526      0.498017      0.142216
  C      -3.131971      1.537957     -0.612327
  H      -3.968244      1.850397      0.011506
  H      -3.562430      1.152404     -1.537942
  H      -2.547573      2.430011     -0.840041
  C      -3.121964     -0.774952      0.381351
  H      -2.036943      0.917942      1.109228
  H      -4.042637     -0.532095      0.909691
  H      -3.395257     -1.253950     -0.559834
  H      -2.579891     -1.493943      0.994070
  C      -0.825113      0.367443     -1.748530
  C       0.527907      0.158039     -2.217359
  H      -1.604107      0.719754     -2.419024
  C       1.636660      0.558465     -1.482885
  C       2.834997      0.157144     -2.138944
  S       0.941236     -0.625887     -3.681776
  C       2.612821     -0.480425     -3.319902
  H       1.541507      1.422631     -0.655194
  H       3.825252      0.382665     -1.770444
  H       3.345186     -0.857037     -4.018021
  H      -0.881229     -3.169417     -0.140842
  H      -0.696247     -2.418604      2.467442
  H       1.852374     -1.652477      2.920407
  O       1.321457      2.419405      0.260685
  O       0.538711      0.899196      1.693594
  C       0.919420      2.091089      1.376015
  C       0.872740      3.084174      2.502262
  H       0.829260      4.099475      2.117609
  H       1.783872      2.991223      3.096618
  H       0.032677      2.900439      3.168717
  H       3.221930     -1.920968      0.637128
  H       1.531450     -2.852862     -1.262167
39
Coordinates from ORCA-job reaction4-IEIP_ts_guess_scan_0-9_orca E -1288.392754821337
  Ir      0.564268     -0.743124      0.502079
  C       0.003175     -2.818316      0.368699
  C       0.088026     -2.376851      1.740509
  C       2.172902     -2.161713      0.790898
  C       1.267680     -2.655383     -0.223079
  C       1.458879     -2.030738      1.993696
  N      -1.040481      0.160400     -0.506456
  C      -2.320239      0.492700      0.140600
  C      -3.131735      1.533957     -0.613189
  H      -3.969192      1.844857      0.009836
  H      -3.560480      1.150211     -1.540341
  H      -2.547211      2.426642     -0.838088
  C      -3.122624     -0.781088      0.375499
  H      -2.039743      0.910650      1.109074
  H      -4.044405     -0.539791      0.902636
  H      -3.393919     -1.258162     -0.567235
  H      -2.581361     -1.501178      0.987648
  C      -0.823078      0.367233     -1.748018
  C       0.529931      0.160492     -2.218842
  H      -1.602041      0.721921     -2.417311
  C       1.639667      0.550561     -1.480317
  C       2.837073      0.160488     -2.145006
  S       0.941235     -0.603970     -3.694266
  C       2.613393     -0.458085     -3.335756
  H       1.544446      1.404173     -0.634162
  H       3.827860      0.381247     -1.775030
  H       3.344760     -0.822368     -4.041460
  H      -0.888918     -3.171294     -0.128429
  H      -0.701355     -2.411832      2.477163
  H       1.849219     -1.650215      2.926631
  O       1.325682      2.423416      0.256963
  O       0.542411      0.903342      1.691651
  C       0.924489      2.094500      1.372731
  C       0.880010      3.088035      2.498384
  H       0.836282      4.103204      2.113393
  H       1.792094      2.994973      3.091259
  H       0.040954      2.904749      3.166159
  H       3.217504     -1.929984      0.643875
  H       1.524208     -2.864467     -1.251657
39
Coordinates from ORCA-job reaction4-IEIP_ts_guess_scan_0-9_orca E -1288.392558616652
  Ir      0.560797     -0.736780      0.500674
  C       0.006245     -2.813830      0.367509
  C       0.087748     -2.371770      1.739300
  C       2.173371     -2.150443      0.792531
  C       1.271154     -2.647196     -0.222592
  C       1.457127     -2.021228      1.994262
  N      -1.046235      0.158899     -0.510705
  C      -2.326909      0.490216      0.135343
  C      -3.141552      1.526256     -0.622310
  H      -3.979465      1.837623     -0.000110
  H      -3.569866      1.137608     -1.547599
  H      -2.559425      2.419456     -0.851332
  C      -3.125888     -0.784707      0.375634
  H      -2.047556      0.912871      1.102116
  H      -4.048301     -0.543786      0.901869
  H      -3.395921     -1.266409     -0.565096
  H      -2.582580     -1.500785      0.990657
  C      -0.830644      0.358314     -1.754004
  C       0.522357      0.152686     -2.224708
  H      -1.611542      0.705838     -2.424814
  C       1.630474      0.551124     -1.488570
  C       2.828682      0.161715     -2.152407
  S       0.935226     -0.617334     -3.697024
  C       2.606815     -0.462322     -3.340780
  H       1.530872      1.421440     -0.645705
  H       3.818969      0.388745     -1.784855
  H       3.339165     -0.825894     -4.045877
  H      -0.884027     -3.169717     -0.130807
  H      -0.702566     -2.409070      2.474827
  H       1.844972     -1.639310      2.927666
  O       1.419695      2.413425      0.294733
  O       0.533166      0.913169      1.690565
  C       0.958992      2.093996      1.390689
  C       0.891977      3.087696      2.514591
  H       0.891067      4.103900      2.129807
  H       1.775135      2.970684      3.145786
  H       0.020578      2.925574      3.145262
  H       3.217486     -1.915657      0.646952
  H       1.529776     -2.855806     -1.250738
39
Coordinates from ORCA-job reaction4-IEIP_ts_guess_scan_0-9_orca E -1288.392448160088
  Ir      0.567951     -0.736388      0.497362
  C       0.016690     -2.812518      0.343690
  C       0.098100     -2.384280      1.719811
  C       2.182999     -2.150041      0.774233
  C       1.281061     -2.637656     -0.245548
  C       1.467073     -2.034104      1.977571
  N      -1.038644      0.168106     -0.503625
  C      -2.317525      0.501280      0.145304
  C      -3.129336      1.543636     -0.606791
  H      -3.965179      1.855520      0.017934
  H      -3.560469      1.160614     -1.533105
  H      -2.544190      2.435609     -0.832869
  C      -3.121284     -0.771477      0.381135
  H      -2.035580      0.918867      1.113566
  H      -4.042334     -0.529108      0.909103
  H      -3.393954     -1.248329     -0.561306
  H      -2.580320     -1.492127      0.992821
  C      -0.822366      0.368957     -1.746355
  C       0.529587      0.154045     -2.214306
  H      -1.602050      0.716324     -2.418640
  C       1.639226      0.561177     -1.484732
  C       2.834848      0.138169     -2.132113
  S       0.939394     -0.647361     -3.670693
  C       2.610441     -0.514994     -3.304273
  H       1.551440      1.468223     -0.674848
  H       3.826433      0.362623     -1.766444
  H       3.341411     -0.906921     -3.995436
  H      -0.873253     -3.164707     -0.157810
  H      -0.691815     -2.430262      2.455266
  H       1.854782     -1.661003      2.914585
  O       1.274373      2.435160      0.257398
  O       0.539155      0.900667      1.699551
  C       0.899408      2.097156      1.380322
  C       0.864909      3.086398      2.509551
  H       0.798243      4.102120      2.129282
  H       1.790904      3.004628      3.082192
  H       0.043178      2.888430      3.194323
  H       3.226658     -1.912069      0.630573
  H       1.539403     -2.835177     -1.275939
39
Coordinates from ORCA-job reaction4-IEIP_ts_guess_scan_0-9_orca E -1288.392726011694
  Ir      0.565600     -0.742995      0.504137
  C       0.007102     -2.818102      0.367092
  C       0.089348     -2.378934      1.739634
  C       2.175494     -2.159857      0.793712
  C       1.272348     -2.652662     -0.222501
  C       1.459410     -2.031508      1.995464
  N      -1.039634      0.160986     -0.505331
  C      -2.318816      0.493900      0.142348
  C      -3.128947      1.537219     -0.610057
  H      -3.965834      1.848557      0.013496
  H      -3.558414      1.155224     -1.537614
  H      -2.543173      2.429323     -0.833982
  C      -3.122938     -0.779122      0.375527
  H      -2.037668      0.910282      1.111324
  H      -4.044520     -0.537152      0.902664
  H      -3.394638     -1.254757     -0.567834
  H      -2.582897     -1.500647      0.987045
  C      -0.823167      0.369258     -1.746715
  C       0.529201      0.164461     -2.219064
  H      -1.602808      0.724865     -2.414740
  C       1.639815      0.549806     -1.479478
  C       2.836483      0.158043     -2.144008
  S       0.939180     -0.595635     -3.697030
  C       2.611472     -0.459893     -3.334827
  H       1.548811      1.399252     -0.637640
  H       3.827754      0.374135     -1.772527
  H       3.342197     -0.827217     -4.039541
  H      -0.883793     -3.171248     -0.132053
  H      -0.701153     -2.416015      2.474980
  H       1.847835     -1.651901      2.929568
  O       1.312873      2.416543      0.251330
  O       0.540020      0.898336      1.691779
  C       0.917609      2.089341      1.369913
  C       0.875751      3.085644      2.493535
  H       0.826723      4.099755      2.106441
  H       1.791253      2.997011      3.081814
  H       0.040776      2.901252      3.166198
  H       3.220058     -1.926674      0.648728
  H       1.530656     -2.859682     -1.251044
39
Coordinates from ORCA-job reaction4-IEIP_ts_guess_scan_0-9_orca E -1288.392804521854
  Ir      0.563665     -0.740058      0.502825
  C       0.006108     -2.815679      0.365273
  C       0.087792     -2.376766      1.737992
  C       2.174120     -2.156470      0.792461
  C       1.271456     -2.649535     -0.224092
  C       1.457606     -2.028716      1.994158
  N      -1.041439      0.160693     -0.506996
  C      -2.321882      0.491850      0.139636
  C      -3.133976      1.533018     -0.613783
  H      -3.971431      1.843466      0.009484
  H      -3.562847      1.149430     -1.540930
  H      -2.549818      2.425945     -0.838647
  C      -3.123755     -0.782433      0.373671
  H      -2.042304      0.909657      1.108448
  H      -4.046142     -0.541827      0.900083
  H      -3.393937     -1.259505     -0.569379
  H      -2.582566     -1.502330      0.986108
  C      -0.825262      0.363880     -1.749517
  C       0.527030      0.157762     -2.220839
  H      -1.605832      0.713774     -2.419463
  C       1.636529      0.549849     -1.483404
  C       2.833520      0.156557     -2.146639
  S       0.937782     -0.612575     -3.693514
  C       2.609729     -0.465086     -3.335906
  H       1.543156      1.418942     -0.645803
  H       3.824503      0.378996     -1.778158
  H       3.341081     -0.830808     -4.040876
  H      -0.884503     -3.169127     -0.134173
  H      -0.702857     -2.414494      2.473141
  H       1.845679     -1.649347      2.928507
  O       1.346897      2.422605      0.267958
  O       0.538841      0.907039      1.693125
  C       0.931423      2.095406      1.379558
  C       0.883867      3.088978      2.504834
  H       0.848303      4.104481      2.119920
  H       1.791169      2.991002      3.104235
  H       0.038972      2.909694      3.166268
  H       3.218638     -1.922892      0.647801
  H       1.530057     -2.856184     -1.252629
39
Coordinates from ORCA-job reaction4-IEIP_ts_guess_scan_0-9_orca E -1288.392814100483
  Ir      0.564864     -0.739839      0.502664
  C       0.008906     -2.815531      0.362668
  C       0.089851     -2.378195      1.735891
  C       2.176318     -2.155279      0.791293
  C       1.274310     -2.647728     -0.226122
  C       1.459326     -2.029397      1.992880
  N      -1.040774      0.161166     -0.506362
  C      -2.320536      0.493032      0.141154
  C      -3.131714      1.535691     -0.611159
  H      -3.968471      1.846738      0.012739
  H      -3.561503      1.153295     -1.538376
  H      -2.546546      2.428039     -0.835685
  C      -3.123734     -0.780543      0.374530
  H      -2.040046      0.909836      1.110146
  H      -4.045699     -0.539269      0.901361
  H      -3.394716     -1.256672     -0.568774
  H      -2.583206     -1.501453      0.986331
  C      -0.825249      0.364961     -1.748863
  C       0.526826      0.159310     -2.220818
  H      -1.606088      0.715484     -2.418179
  C       1.636617      0.550940     -1.483597
  C       2.833380      0.153443     -2.144607
  S       0.937375     -0.607118     -3.695525
  C       2.609129     -0.471734     -3.331955
  H       1.544644      1.419820     -0.647771
  H       3.824578      0.372205     -1.774501
  H       3.340286     -0.843146     -4.034136
  H      -0.881278     -3.169044     -0.137489
  H      -0.701007     -2.417337      2.470735
  H       1.846823     -1.650792      2.927776
  O       1.335374      2.422355      0.264340
  O       0.538506      0.904574      1.693093
  C       0.926195      2.093950      1.377950
  C       0.878826      3.088048      2.502838
  H       0.837293      4.103153      2.117455
  H       1.789006      2.994398      3.098560
  H       0.037436      2.905533      3.167858
  H       3.220711     -1.920770      0.647240
  H       1.533357     -2.852934     -1.254841
39
Coordinates from ORCA-job reaction4-IEIP_ts_guess_scan_0-9_orca E -1288.392816562519
  Ir      0.564960     -0.740644      0.503823
  C       0.008628     -2.816113      0.363144
  C       0.088938     -2.379114      1.736493
  C       2.175971     -2.156457      0.793083
  C       1.274376     -2.648441     -0.224929
  C       1.458351     -2.030660      1.994296
  N      -1.040086      0.160864     -0.505814
  C      -2.319772      0.493273      0.141569
  C      -3.130072      1.536850     -0.610432
  H      -3.966628      1.848328      0.013521
  H      -3.560104      1.155172     -1.537833
  H      -2.544164      2.428810     -0.834569
  C      -3.123863     -0.779869      0.374223
  H      -2.039195      0.909483      1.110787
  H      -4.045799     -0.538206      0.900924
  H      -3.394918     -1.255438     -0.569343
  H      -2.583956     -1.501390      0.985860
  C      -0.824656      0.364089     -1.748431
  C       0.527266      0.158184     -2.220360
  H      -1.605643      0.714026     -2.417889
  C       1.637030      0.549330     -1.482791
  C       2.833908      0.154805     -2.145288
  S       0.937816     -0.611367     -3.693434
  C       2.609754     -0.467835     -3.334013
  H       1.544837      1.417834     -0.647899
  H       3.825014      0.375772     -1.776260
  H       3.340986     -0.835467     -4.038095
  H      -0.881360     -3.169309     -0.137586
  H      -0.702332     -2.418239      2.470896
  H       1.845432     -1.652358      2.929485
  O       1.328699      2.421278      0.261606
  O       0.538580      0.903403      1.693710
  C       0.923126      2.093194      1.376633
  C       0.878566      3.087871      2.501183
  H       0.833931      4.102683      2.115383
  H       1.791243      2.996038      3.093366
  H       0.040097      2.904419      3.169633
  H       3.220501     -1.922171      0.649659
  H       1.533907     -2.853440     -1.253568
39
Coordinates from ORCA-job reaction4-IEIP_ts_guess_scan_0-9_orca E -1288.392818695801
  Ir      0.564670     -0.740455      0.503901
  C       0.008088     -2.815941      0.363827
  C       0.088474     -2.378557      1.737056
  C       2.175530     -2.156413      0.793542
  C       1.273847     -2.648594     -0.224309
  C       1.457931     -2.030195      1.994737
  N      -1.040363      0.160552     -0.505992
  C      -2.320346      0.492186      0.141263
  C      -3.130762      1.536068     -0.610221
  H      -3.967480      1.846990      0.013795
  H      -3.560588      1.154902     -1.537927
  H      -2.544985      2.428274     -0.833719
  C      -3.124095     -0.781372      0.372806
  H      -2.040203      0.907808      1.110848
  H      -4.046252     -0.540394      0.899440
  H      -3.394737     -1.256361     -0.571168
  H      -2.584090     -1.503160      0.984056
  C      -0.825035      0.363882     -1.748653
  C       0.526865      0.158617     -2.220877
  H      -1.606270      0.713480     -2.417993
  C       1.636581      0.549221     -1.482992
  C       2.833498      0.154744     -2.145417
  S       0.937569     -0.608262     -3.695300
  C       2.609413     -0.467184     -3.334545
  H       1.544231      1.417535     -0.646998
  H       3.824603      0.374723     -1.775802
  H       3.340693     -0.834926     -4.038527
  H      -0.881949     -3.169174     -0.136793
  H      -0.702790     -2.417395      2.471481
  H       1.845083     -1.651724      2.929830
  O       1.333964      2.421874      0.262897
  O       0.538934      0.904929      1.693515
  C       0.925810      2.094184      1.377124
  C       0.880308      3.088994      2.501484
  H       0.837127      4.103803      2.115514
  H       1.792014      2.996466      3.095053
  H       0.040664      2.906298      3.168656
  H       3.220094     -1.922324      0.650046
  H       1.533323     -2.853909     -1.252898
