39
Coordinates from ORCA-job reaction4-IEIP_ts_guess_scan_12-8_orca E -1288.400815062406
  Ir      0.616100     -0.723330      0.411090
  C       0.122762     -2.836257      0.341970
  C      -0.047313     -2.377237      1.695061
  C       2.169582     -2.077125      1.098511
  C       1.476767     -2.660653     -0.018982
  C       1.222206     -1.932293      2.146854
  N      -1.067781      0.127436     -0.519416
  C      -2.338837      0.331757      0.191648
  C      -3.144258      1.518158     -0.318522
  H      -3.972940      1.699918      0.364026
  H      -3.583843      1.340992     -1.301065
  H      -2.547878      2.429942     -0.358820
  C      -3.155416     -0.955190      0.146552
  H      -2.054965      0.532246      1.225901
  H      -4.062644     -0.839195      0.738105
  H      -3.451848     -1.196806     -0.874946
  H      -2.606490     -1.803383      0.552029
  C      -0.914203      0.476002     -1.738569
  C       0.405318      0.294912     -2.251544
  H      -1.717672      0.906605     -2.327387
  C       1.434459      0.078808     -1.331629
  C       2.652195     -0.180429     -2.036140
  S       0.903654      0.207440     -3.869642
  C       2.511066     -0.137444     -3.389283
  H       1.607680      1.128266     -0.597626
  H       3.606981     -0.331144     -1.553360
  H       3.276754     -0.268475     -4.138815
  H      -0.645604     -3.259756     -0.288355
  H      -0.951151     -2.419721      2.283366
  H       1.422121     -1.487656      3.111621
  O       1.719160      2.307905      0.120864
  O       0.559971      1.021029      1.516687
  C       1.120497      2.117585      1.195336
  C       1.066707      3.226790      2.204862
  H       0.953401      4.188516      1.709798
  H       2.011847      3.254112      2.749812
  H       0.264994      3.078466      2.922862
  H       3.224517     -1.858797      1.159426
  H       1.913475     -2.922806     -0.971541
39
Coordinates from ORCA-job reaction4-IEIP_ts_guess_scan_12-8_orca E -1288.400702643608
  Ir      0.613933     -0.714322      0.406016
  C       0.128385     -2.831581      0.340085
  C      -0.043678     -2.374171      1.693419
  C       2.171340     -2.064020      1.097702
  C       1.481917     -2.651171     -0.019851
  C       1.222529     -1.923171      2.145044
  N      -1.075678      0.127832     -0.521554
  C      -2.346279      0.331287      0.190745
  C      -3.155272      1.513600     -0.323252
  H      -3.984106      1.695508      0.359042
  H      -3.594745      1.331610     -1.304970
  H      -2.561520      2.426948     -0.367214
  C      -3.159638     -0.957867      0.151273
  H      -2.061997      0.536414      1.224006
  H      -4.066630     -0.842126      0.743244
  H      -3.456444     -1.204048     -0.869038
  H      -2.608143     -1.803159      0.559303
  C      -0.921732      0.472107     -1.746695
  C       0.400393      0.291953     -2.262713
  H      -1.726763      0.898089     -2.336677
  C       1.429263      0.081566     -1.340982
  C       2.647310     -0.181938     -2.044077
  S       0.899936      0.199139     -3.880321
  C       2.506606     -0.146719     -3.397426
  H       1.609846      1.154682     -0.627024
  H       3.602153     -0.329577     -1.560291
  H       3.272567     -0.283028     -4.145635
  H      -0.637770     -3.258944     -0.290355
  H      -0.947245     -2.421016      2.281712
  H       1.419969     -1.477912      3.110040
  O       1.799873      2.268984      0.174490
  O       0.543160      1.028495      1.518132
  C       1.145118      2.108152      1.220855
  C       1.072710      3.226810      2.218286
  H       1.009562      4.187102      1.711527
  H       1.990872      3.233355      2.808154
  H       0.233522      3.105888      2.897426
  H       3.225534     -1.842456      1.159943
  H       1.920514     -2.913104     -0.971631
39
Coordinates from ORCA-job reaction4-IEIP_ts_guess_scan_12-8_orca E -1288.399779182153
  Ir      0.624389     -0.718790      0.405607
  C       0.132196     -2.839324      0.333038
  C      -0.037932     -2.392724      1.690177
  C       2.175865     -2.081069      1.095283
  C       1.486256     -2.660573     -0.025615
  C       1.226393     -1.945718      2.142803
  N      -1.064921      0.134674     -0.509329
  C      -2.334111      0.340378      0.204531
  C      -3.134282      1.532064     -0.301563
  H      -3.963475      1.713839      0.380263
  H      -3.572359      1.360755     -1.285839
  H      -2.534634      2.441960     -0.336896
  C      -3.156141     -0.942824      0.153698
  H      -2.049721      0.535360      1.239762
  H      -4.063089     -0.826061      0.745543
  H      -3.453447     -1.178640     -0.868936
  H      -2.610789     -1.795162      0.555260
  C      -0.901950      0.490572     -1.740274
  C       0.423978      0.303230     -2.264785
  H      -1.703802      0.926897     -2.326858
  C       1.447781      0.064259     -1.343411
  C       2.660572     -0.222762     -2.048176
  S       0.924199      0.215301     -3.882833
  C       2.521887     -0.174408     -3.401080
  H       1.678131      1.163529     -0.650465
  H       3.612000     -0.393648     -1.564957
  H       3.285488     -0.323794     -4.149019
  H      -0.634585     -3.262293     -0.299662
  H      -0.940820     -2.442949      2.279007
  H       1.424514     -1.507853      3.111036
  O       1.608254      2.323670      0.104117
  O       0.544717      1.019974      1.541717
  C       1.069397      2.127345      1.209758
  C       1.028465      3.238710      2.215876
  H       0.869551      4.195229      1.723014
  H       1.994352      3.292760      2.721011
  H       0.261223      3.071886      2.966366
  H       3.230915     -1.864477      1.160655
  H       1.924904     -2.920132     -0.978083
39
Coordinates from ORCA-job reaction4-IEIP_ts_guess_scan_12-8_orca E -1288.401109517574
  Ir      0.614758     -0.723663      0.409226
  C       0.118809     -2.840152      0.350122
  C      -0.047994     -2.382777      1.704003
  C       2.166192     -2.080538      1.102296
  C       1.472515     -2.665976     -0.013215
  C       1.219564     -1.935456      2.151496
  N      -1.071696      0.125534     -0.515694
  C      -2.342908      0.328269      0.194095
  C      -3.146529      1.515993     -0.315845
  H      -3.977702      1.696170      0.364074
  H      -3.582181      1.341126     -1.300556
  H      -2.549985      2.427858     -0.351846
  C      -3.159541     -0.958427      0.144202
  H      -2.060880      0.526252      1.229283
  H      -4.067923     -0.843999      0.734296
  H      -3.454027     -1.197400     -0.878479
  H      -2.611320     -1.807682      0.548471
  C      -0.913954      0.478037     -1.740258
  C       0.409519      0.300520     -2.258817
  H      -1.717630      0.910921     -2.326908
  C       1.434238      0.068762     -1.337404
  C       2.655104     -0.186551     -2.039732
  S       0.913535      0.225677     -3.875853
  C       2.519662     -0.125582     -3.392753
  H       1.622713      1.143303     -0.613751
  H       3.608033     -0.342718     -1.554758
  H       3.288657     -0.248606     -4.140181
  H      -0.650426     -3.265247     -0.278086
  H      -0.950261     -2.425929      2.294493
  H       1.420710     -1.490349      3.115780
  O       1.702075      2.323627      0.107872
  O       0.562388      1.025456      1.514754
  C       1.117413      2.123840      1.190570
  C       1.073030      3.229364      2.203102
  H       0.949308      4.192198      1.712670
  H       2.025179      3.258670      2.735616
  H       0.281335      3.074879      2.930672
  H       3.221572     -1.864438      1.163116
  H       1.908015     -2.931775     -0.965332
39
Coordinates from ORCA-job reaction4-IEIP_ts_guess_scan_12-8_orca E -1288.401160798620
  Ir      0.614764     -0.721150      0.408280
  C       0.119930     -2.837340      0.350374
  C      -0.049283     -2.380229      1.703859
  C       2.165602     -2.076503      1.105690
  C       1.474299     -2.662869     -0.010567
  C       1.217106     -1.931917      2.153187
  N      -1.071538      0.125616     -0.517911
  C      -2.342740      0.327233      0.192261
  C      -3.149169      1.513032     -0.317822
  H      -3.979996      1.692299      0.362765
  H      -3.585551      1.336479     -1.301883
  H      -2.554304      2.425926     -0.355243
  C      -3.157305     -0.960921      0.145105
  H      -2.060048      0.526871      1.227041
  H      -4.065330     -0.847218      0.735919
  H      -3.452275     -1.201881     -0.876955
  H      -2.607173     -1.808588      0.550115
  C      -0.915631      0.477805     -1.741261
  C       0.406125      0.300978     -2.260992
  H      -1.720322      0.910165     -2.326818
  C       1.431603      0.068571     -1.340811
  C       2.651371     -0.186606     -2.044494
  S       0.910424      0.238284     -3.878381
  C       2.514039     -0.126269     -3.397390
  H       1.621787      1.149842     -0.627335
  H       3.604157     -0.347026     -1.560788
  H       3.281538     -0.252530     -4.145823
  H      -0.647928     -3.263104     -0.279028
  H      -0.952650     -2.423408      2.292686
  H       1.416376     -1.486215      3.117596
  O       1.737971      2.305439      0.128511
  O       0.558228      1.026694      1.514302
  C       1.126772      2.119037      1.198516
  C       1.073943      3.229319      2.205986
  H       0.970443      4.191602      1.709785
  H       2.015523      3.250571      2.757377
  H       0.266251      3.086230      2.918173
  H       3.220785     -1.860010      1.168474
  H       1.911576     -2.929021     -0.961761
39
Coordinates from ORCA-job reaction4-IEIP_ts_guess_scan_12-8_orca E -1288.401200529590
  Ir      0.614489     -0.723493      0.409005
  C       0.117591     -2.839168      0.353924
  C      -0.051384     -2.381781      1.707340
  C       2.163667     -2.079714      1.108987
  C       1.472311     -2.666232     -0.006969
  C       1.214879     -1.933960      2.156308
  N      -1.071485      0.124874     -0.517418
  C      -2.343162      0.325371      0.192453
  C      -3.149439      1.512032     -0.315863
  H      -3.980558      1.690012      0.364670
  H      -3.585399      1.337224     -1.300427
  H      -2.554599      2.425031     -0.351378
  C      -3.157960     -0.962568      0.142904
  H      -2.061019      0.523295      1.227739
  H      -4.066323     -0.849615      0.733330
  H      -3.452324     -1.201927     -0.879715
  H      -2.608231     -1.810905      0.546954
  C      -0.914970      0.479541     -1.740452
  C       0.406465      0.302368     -2.261345
  H      -1.719705      0.912917     -2.325214
  C       1.430921      0.063483     -1.341512
  C       2.651566     -0.187427     -2.045302
  S       0.911347      0.243933     -3.878694
  C       2.516458     -0.114195     -3.397819
  H       1.624177      1.148952     -0.630707
  H       3.603860     -0.350453     -1.561505
  H       3.285455     -0.232341     -4.146044
  H      -0.650420     -3.264861     -0.275344
  H      -0.954926     -2.423743      2.295957
  H       1.414344     -1.487745      3.120441
  O       1.735768      2.306562      0.122746
  O       0.562207      1.026860      1.513087
  C       1.130612      2.118524      1.196226
  C       1.076727      3.231077      2.201142
  H       0.969315      4.191994      1.703118
  H       2.019468      3.256224      2.750343
  H       0.271007      3.087184      2.915394
  H       3.219078     -1.864474      1.172198
  H       1.909561     -2.933666     -0.957823
39
Coordinates from ORCA-job reaction4-IEIP_ts_guess_scan_12-8_orca E -1288.401251269448
  Ir      0.612688     -0.728188      0.410261
  C       0.113449     -2.842727      0.362310
  C      -0.057149     -2.384177      1.715165
  C       2.158724     -2.083701      1.118905
  C       1.469316     -2.672072      0.003175
  C       1.207781     -1.935747      2.164657
  N      -1.072071      0.121819     -0.517493
  C      -2.344761      0.319153      0.191799
  C      -3.151393      1.507269     -0.312504
  H      -3.983115      1.681933      0.368088
  H      -3.586509      1.336124     -1.298099
  H      -2.557103      2.420798     -0.343889
  C      -3.159208     -0.968809      0.137003
  H      -2.063816      0.513459      1.228155
  H      -4.068373     -0.857986      0.726565
  H      -3.452076     -1.204881     -0.886818
  H      -2.609850     -1.818283      0.539007
  C      -0.914253      0.483854     -1.738828
  C       0.407046      0.309408     -2.261503
  H      -1.718859      0.921199     -2.320837
  C       1.428746      0.053398     -1.342844
  C       2.651224     -0.188012     -2.047052
  S       0.916990      0.278652     -3.877944
  C       2.519716     -0.091790     -3.398563
  H       1.628934      1.146859     -0.636305
  H       3.601604     -0.362672     -1.563563
  H       3.290508     -0.199378     -4.146549
  H      -0.653622     -3.269505     -0.267380
  H      -0.961852     -2.423842      2.302100
  H       1.406000     -1.487429      3.128072
  O       1.728766      2.312318      0.106624
  O       0.568794      1.028814      1.506908
  C       1.132415      2.120798      1.185362
  C       1.087993      3.233279      2.190865
  H       0.974015      4.194131      1.694263
  H       2.036422      3.259633      2.730159
  H       0.289962      3.088003      2.913397
  H       3.214319     -1.870053      1.184279
  H       1.907969     -2.942459     -0.946207
39
Coordinates from ORCA-job reaction4-IEIP_ts_guess_scan_12-8_orca E -1288.401264161277
  Ir      0.611697     -0.731681      0.410412
  C       0.111995     -2.844908      0.366311
  C      -0.062465     -2.385585      1.718472
  C       2.155066     -2.085134      1.128004
  C       1.469390     -2.675391      0.011299
  C       1.200644     -1.936159      2.170896
  N      -1.071524      0.119194     -0.518349
  C      -2.343891      0.315714      0.191685
  C      -3.150777      1.504682     -0.310152
  H      -3.982023      1.678110      0.371329
  H      -3.586529      1.335321     -1.295775
  H      -2.556480      2.418257     -0.340255
  C      -3.158476     -0.972058      0.135546
  H      -2.062380      0.508608      1.228190
  H      -4.067587     -0.861711      0.725285
  H      -3.451363     -1.206942     -0.888528
  H      -2.609232     -1.822083      0.536562
  C      -0.914460      0.485307     -1.737953
  C       0.405681      0.312067     -2.262156
  H      -1.719333      0.925273     -2.317549
  C       1.426277      0.046238     -1.345010
  C       2.649613     -0.187503     -2.050220
  S       0.918009      0.300850     -3.878005
  C       2.519843     -0.074934     -3.400729
  H       1.629521      1.146260     -0.644540
  H       3.599055     -0.369708     -1.567723
  H       3.291607     -0.173957     -4.148917
  H      -0.652924     -3.272895     -0.265161
  H      -0.969164     -2.423888      2.302401
  H       1.395966     -1.486131      3.134101
  O       1.735253      2.309167      0.101564
  O       0.571108      1.028815      1.501296
  C       1.136415      2.119096      1.179713
  C       1.093058      3.233339      2.183515
  H       0.980648      4.193617      1.685461
  H       2.041229      3.259153      2.723276
  H       0.294407      3.090229      2.905818
  H       3.210523     -1.871895      1.196833
  H       1.910973     -2.947545     -0.936208
39
Coordinates from ORCA-job reaction4-IEIP_ts_guess_scan_12-8_orca E -1288.401266577957
  Ir      0.611721     -0.733143      0.410132
  C       0.113375     -2.846008      0.366049
  C      -0.064831     -2.386431      1.717780
  C       2.154065     -2.084691      1.133014
  C       1.471831     -2.676113      0.014902
  C       1.196681     -1.936035      2.173445
  N      -1.071491      0.118126     -0.518665
  C      -2.343487      0.314543      0.192194
  C      -3.150097      1.504489     -0.307796
  H      -3.980889      1.677355      0.374401
  H      -3.586434      1.336662     -1.293412
  H      -2.555456      2.417876     -0.336959
  C      -3.158629     -0.972795      0.134794
  H      -2.061460      0.506258      1.228756
  H      -4.067572     -0.862685      0.724850
  H      -3.451825     -1.206389     -0.889476
  H      -2.609715     -1.823576      0.534647
  C      -0.915008      0.485549     -1.737694
  C       0.404745      0.312193     -2.262369
  H      -1.719854      0.926615     -2.316430
  C       1.425421      0.044159     -1.345970
  C       2.648885     -0.186994     -2.051780
  S       0.917699      0.307962     -3.878023
  C       2.518958     -0.071204     -3.402045
  H       1.628569      1.146236     -0.648016
  H       3.598198     -0.371478     -1.569896
  H       3.290642     -0.168496     -4.150544
  H      -0.649423     -3.275092     -0.267237
  H      -0.973136     -2.424845      2.299206
  H       1.389154     -1.485386      3.136926
  O       1.737662      2.307920      0.099509
  O       0.571607      1.028938      1.498906
  C       1.137465      2.118802      1.177168
  C       1.094746      3.233270      2.180775
  H       0.983033      4.193512      1.682483
  H       2.042900      3.258503      2.720596
  H       0.295950      3.090900      2.903069
  H       3.209211     -1.870876      1.204724
  H       1.916159     -2.948441     -0.931276
39
Coordinates from ORCA-job reaction4-IEIP_ts_guess_scan_12-8_orca E -1288.401269224442
  Ir      0.612092     -0.734091      0.409664
  C       0.116322     -2.846826      0.363866
  C      -0.067609     -2.387247      1.715057
  C       2.153234     -2.083081      1.139059
  C       1.476203     -2.675789      0.018583
  C       1.191443     -1.935554      2.175862
  N      -1.071409      0.117559     -0.518435
  C      -2.342909      0.313691      0.193407
  C      -3.148921      1.505054     -0.304195
  H      -3.979335      1.677134      0.378679
  H      -3.585676      1.339448     -1.289995
  H      -2.553748      2.418146     -0.331779
  C      -3.158701     -0.973110      0.133800
  H      -2.060341      0.503612      1.230117
  H      -4.067383     -0.863725      0.724408
  H      -3.452391     -1.204533     -0.890815
  H      -2.610065     -1.825054      0.531599
  C      -0.915776      0.485727     -1.737180
  C       0.403600      0.311677     -2.262509
  H      -1.720652      0.927605     -2.315225
  C       1.424841      0.043024     -1.346962
  C       2.647953     -0.187156     -2.053672
  S       0.915967      0.310116     -3.878332
  C       2.517259     -0.070140     -3.403787
  H       1.627580      1.146333     -0.651335
  H       3.597444     -0.372746     -1.572564
  H       3.288512     -0.166797     -4.152811
  H      -0.643251     -3.277428     -0.272245
  H      -0.978226     -2.426430      2.292812
  H       1.379514     -1.484545      3.140033
  O       1.738354      2.307324      0.097018
  O       0.571987      1.029022      1.496718
  C       1.137657      2.118911      1.174482
  C       1.096152      3.232996      2.178536
  H       0.984417      4.193437      1.680611
  H       2.044783      3.257637      2.717560
  H       0.297926      3.090756      2.901470
  H       3.207849     -1.868133      1.215026
  H       1.924674     -2.947636     -0.925790
39
Coordinates from ORCA-job reaction4-IEIP_ts_guess_scan_12-8_orca E -1288.401273716801
  Ir      0.613327     -0.735523      0.408981
  C       0.123741     -2.848471      0.358101
  C      -0.072888     -2.389590      1.708270
  C       2.152008     -2.079275      1.151647
  C       1.486569     -2.674338      0.025804
  C       1.180470     -1.935061      2.180568
  N      -1.071388      0.116967     -0.517104
  C      -2.342147      0.311908      0.196427
  C      -3.146400      1.506920     -0.295270
  H      -3.976423      1.676805      0.388654
  H      -3.583446      1.347132     -1.281887
  H      -2.549851      2.419242     -0.318220
  C      -3.159584     -0.973516      0.130368
  H      -2.058909      0.496801      1.233806
  H      -4.067709     -0.866412      0.722276
  H      -3.454347     -1.198840     -0.895295
  H      -2.611651     -1.828534      0.522557
  C      -0.917440      0.486429     -1.735511
  C       0.401261      0.311152     -2.262424
  H      -1.722448      0.929805     -2.312190
  C       1.423865      0.041627     -1.348652
  C       2.645735     -0.188559     -2.057558
  S       0.911556      0.312357     -3.878857
  C       2.512832     -0.071284     -3.407450
  H       1.626387      1.146369     -0.656499
  H       3.595783     -0.375853     -1.578206
  H       3.282727     -0.168567     -4.157783
  H      -0.628619     -3.282341     -0.284305
  H      -0.988481     -2.431106      2.277973
  H       1.358658     -1.483846      3.146501
  O       1.739203      2.307233      0.091746
  O       0.574410      1.029387      1.493259
  C       1.140195      2.119168      1.170066
  C       1.098508      3.233498      2.173757
  H       0.985074      4.193656      1.675616
  H       2.047848      3.259318      2.711473
  H       0.301407      3.090684      2.897788
  H       3.205364     -1.861741      1.237034
  H       1.944170     -2.944409     -0.914719
39
Coordinates from ORCA-job reaction4-IEIP_ts_guess_scan_12-8_orca E -1288.401279893310
  Ir      0.614725     -0.735998      0.408558
  C       0.133887     -2.849922      0.350539
  C      -0.078745     -2.392690      1.699478
  C       2.150711     -2.073198      1.166981
  C       1.500046     -2.671032      0.034467
  C       1.167003     -1.934153      2.186115
  N      -1.071860      0.116647     -0.515162
  C      -2.342168      0.309618      0.199705
  C      -3.144034      1.509234     -0.284647
  H      -3.974066      1.676175      0.399998
  H      -3.580775      1.356951     -1.272574
  H      -2.545711      2.420526     -0.301236
  C      -3.161547     -0.974098      0.124885
  H      -2.058716      0.487779      1.238160
  H      -4.068914     -0.870453      0.718585
  H      -3.457723     -1.191160     -0.902160
  H      -2.614248     -1.833032      0.509403
  C      -0.919828      0.486659     -1.733644
  C       0.398108      0.310207     -2.262614
  H      -1.725334      0.930648     -2.309160
  C       1.422354      0.040753     -1.350590
  C       2.642511     -0.191196     -2.062071
  S       0.904649      0.308162     -3.880159
  C       2.507094     -0.074263     -3.411698
  H       1.625402      1.146756     -0.661841
  H       3.593493     -0.378543     -1.584561
  H       3.275517     -0.172208     -4.163447
  H      -0.609234     -3.287988     -0.299689
  H      -1.000369     -2.437905      2.259112
  H       1.332542     -1.483097      3.154353
  O       1.737697      2.308480      0.085148
  O       0.577323      1.030729      1.490315
  C       1.140997      2.121075      1.164669
  C       1.103740      3.234385      2.169623
  H       0.988244      4.195048      1.672914
  H       2.055450      3.259664      2.703201
  H       0.309800      3.090928      2.896955
  H       3.202304     -1.852139      1.264130
  H       1.969048     -2.938162     -0.901301
39
Coordinates from ORCA-job reaction4-IEIP_ts_guess_scan_12-8_orca E -1288.401287589495
  Ir      0.615985     -0.735454      0.408532
  C       0.142373     -2.850608      0.343547
  C      -0.082492     -2.396082      1.691796
  C       2.149893     -2.068212      1.177888
  C       1.510766     -2.667385      0.039971
  C       1.156947     -1.934444      2.189576
  N      -1.072174      0.116688     -0.512968
  C      -2.342321      0.308032      0.202532
  C      -3.141859      1.511621     -0.275762
  H      -3.972078      1.676363      0.409171
  H      -3.578138      1.365644     -1.264846
  H      -2.541731      2.421795     -0.287015
  C      -3.163524     -0.974107      0.120443
  H      -2.058942      0.480283      1.241995
  H      -4.069895     -0.873527      0.716179
  H      -3.461456     -1.183915     -0.907616
  H      -2.616524     -1.836358      0.498007
  C      -0.921599      0.486322     -1.731860
  C       0.395842      0.309961     -2.262659
  H      -1.727827      0.930147     -2.306556
  C       1.421346      0.040875     -1.351841
  C       2.639932     -0.194073     -2.065294
  S       0.899181      0.303936     -3.881118
  C       2.502203     -0.079648     -3.414814
  H       1.625855      1.146825     -0.663806
  H       3.591701     -0.380942     -1.589122
  H       3.269151     -0.180029     -4.167749
  H      -0.593573     -3.291528     -0.312840
  H      -1.008630     -2.444814      2.243640
  H       1.312577     -1.484324      3.159882
  O       1.737193      2.309991      0.081079
  O       0.581012      1.031694      1.489385
  C       1.144134      2.121969      1.162443
  C       1.106412      3.236225      2.166334
  H       0.988413      4.196281      1.669025
  H       2.058932      3.263749      2.698338
  H       0.313853      3.091932      2.894992
  H       3.200028     -1.844479      1.284234
  H       1.988406     -2.931214     -0.892381
39
Coordinates from ORCA-job reaction4-IEIP_ts_guess_scan_12-8_orca E -1288.401295334864
  Ir      0.616690     -0.734053      0.408981
  C       0.148961     -2.850695      0.338174
  C      -0.084154     -2.399650      1.686275
  C       2.149540     -2.064097      1.184986
  C       1.518546     -2.663579      0.043031
  C       1.150459     -1.935502      2.191676
  N      -1.072873      0.116416     -0.511249
  C      -2.343173      0.306928      0.204140
  C      -3.140421      1.513603     -0.270107
  H      -3.970907      1.677353      0.414713
  H      -3.576230      1.372115     -1.260058
  H      -2.538443      2.422577     -0.277695
  C      -3.166193     -0.973771      0.117164
  H      -2.060147      0.474784      1.244441
  H      -4.071356     -0.875254      0.715053
  H      -3.466180     -1.178123     -0.911415
  H      -2.619313     -1.838504      0.489252
  C      -0.923226      0.484382     -1.730939
  C       0.393936      0.308942     -2.263101
  H      -1.730492      0.926575     -2.305526
  C       1.420283      0.041012     -1.352756
  C       2.638022     -0.196145     -2.067130
  S       0.894953      0.297723     -3.882195
  C       2.498936     -0.084074     -3.416611
  H       1.626546      1.146681     -0.663857
  H       3.590431     -0.381151     -1.591482
  H       3.265098     -0.185816     -4.170165
  H      -0.582011     -3.293294     -0.322597
  H      -1.013308     -2.451461      2.232749
  H       1.299115     -1.486740      3.163701
  O       1.736456      2.311240      0.079061
  O       0.583914      1.032857      1.490269
  C       1.145841      2.123070      1.161850
  C       1.109242      3.238333      2.164755
  H       0.990005      4.197917      1.666869
  H       2.062524      3.266901      2.695327
  H       0.317792      3.094172      2.894664
  H       3.198585     -1.838432      1.297804
  H       2.001925     -2.924049     -0.887313
39
Coordinates from ORCA-job reaction4-IEIP_ts_guess_scan_12-8_orca E -1288.401298347017
  Ir      0.616833     -0.733516      0.409430
  C       0.152041     -2.850759      0.335388
  C      -0.084979     -2.402140      1.683619
  C       2.149297     -2.062354      1.188359
  C       1.522194     -2.661608      0.044298
  C       1.147334     -1.936799      2.192775
  N      -1.073045      0.115879     -0.510582
  C      -2.343239      0.306644      0.204899
  C      -3.139123      1.514819     -0.267790
  H      -3.969467      1.678746      0.417156
  H      -3.575097      1.375115     -1.257925
  H      -2.535933      2.422989     -0.274328
  C      -3.167444     -0.973208      0.116544
  H      -2.060137      0.472789      1.245460
  H      -4.071642     -0.875199      0.715963
  H      -3.469056     -1.175357     -0.912000
  H      -2.620550     -1.839039      0.486122
  C      -0.924098      0.482400     -1.730764
  C       0.392732      0.307455     -2.263520
  H      -1.732093      0.923254     -2.305400
  C       1.419381      0.040255     -1.353351
  C       2.637113     -0.196555     -2.067817
  S       0.893299      0.295664     -3.882748
  C       2.497664     -0.085042     -3.417300
  H       1.626345      1.145981     -0.663781
  H       3.589735     -0.380614     -1.592224
  H       3.263674     -0.186591     -4.171036
  H      -0.576565     -3.293770     -0.327709
  H      -1.015667     -2.455364      2.227348
  H       1.292661     -1.488976      3.165737
  O       1.736384      2.311049      0.078318
  O       0.585084      1.033148      1.490941
  C       1.146423      2.123189      1.161666
  C       1.110149      3.239461      2.163521
  H       0.990824      4.198560      1.664750
  H       2.063499      3.268522      2.693931
  H       0.318800      3.095977      2.893695
  H       3.197810     -1.835828      1.304343
  H       2.008229     -2.919985     -0.885249
39
Coordinates from ORCA-job reaction4-IEIP_ts_guess_scan_12-8_orca E -1288.401300409561
  Ir      0.616850     -0.733247      0.409999
  C       0.154712     -2.850811      0.332751
  C      -0.085533     -2.404695      1.681256
  C       2.149214     -2.061072      1.191066
  C       1.525350     -2.659828      0.045106
  C       1.144903     -1.938406      2.193680
  N      -1.073172      0.115060     -0.510109
  C      -2.343107      0.306623      0.205684
  C      -3.137537      1.516172     -0.265939
  H      -3.967512      1.680773      0.419303
  H      -3.573982      1.377794     -1.256051
  H      -2.533040      2.423469     -0.272074
  C      -3.168706     -0.972288      0.116730
  H      -2.059752      0.471610      1.246351
  H      -4.071852     -0.874259      0.717733
  H      -3.472112     -1.172800     -0.911606
  H      -2.621926     -1.839085      0.484259
  C      -0.925015      0.479749     -1.730911
  C       0.391474      0.304963     -2.264022
  H      -1.733742      0.918973     -2.305780
  C       1.418388      0.038888     -1.353959
  C       2.636487     -0.196378     -2.068134
  S       0.892334      0.294143     -3.883231
  C       2.496976     -0.085047     -3.417670
  H       1.625503      1.144705     -0.663646
  H       3.589220     -0.379462     -1.592393
  H       3.263076     -0.185730     -4.171432
  H      -0.571909     -3.293853     -0.332494
  H      -1.017576     -2.458996      2.222556
  H       1.287481     -1.491618      3.167522
  O       1.736554      2.310029      0.077901
  O       0.585625      1.033236      1.491730
  C       1.146446      2.123086      1.161462
  C       1.110424      3.240482      2.162097
  H       0.991707      4.199036      1.662161
  H       2.063558      3.269638      2.692879
  H       0.318737      3.098195      2.892157
  H       3.197272     -1.833837      1.309717
  H       2.013552     -2.916023     -0.883910
39
Coordinates from ORCA-job reaction4-IEIP_ts_guess_scan_12-8_orca E -1288.401300798314
  Ir      0.616831     -0.733308      0.410245
  C       0.155298     -2.850769      0.331925
  C      -0.085571     -2.405365      1.680584
  C       2.149299     -2.060969      1.191487
  C       1.526057     -2.659398      0.045049
  C       1.144548     -1.939010      2.193783
  N      -1.073117      0.114700     -0.509964
  C      -2.342859      0.306793      0.206076
  C      -3.136761      1.516740     -0.265449
  H      -3.966507      1.681796      0.419973
  H      -3.573488      1.378595     -1.255467
  H      -2.531812      2.423733     -0.271733
  C      -3.169012     -0.971761      0.117236
  H      -2.059319      0.471696      1.246689
  H      -4.071835     -0.873462      0.718687
  H      -3.472993     -1.172011     -0.910977
  H      -2.622380     -1.838830      0.484364
  C      -0.925286      0.478588     -1.731054
  C       0.391103      0.303577     -2.264161
  H      -1.734224      0.917181     -2.306095
  C       1.418131      0.038094     -1.354142
  C       2.636510     -0.196078     -2.068048
  S       0.892406      0.293770     -3.883319
  C       2.497080     -0.084633     -3.417632
  H       1.624987      1.143835     -0.663509
  H       3.589239     -0.378852     -1.592188
  H       3.263316     -0.184727     -4.171333
  H      -0.570921     -3.293596     -0.333900
  H      -1.017942     -2.459762      2.221311
  H       1.286616     -1.492636      3.167886
  O       1.736542      2.309226      0.077857
  O       0.585346      1.033108      1.492011
  C       1.146058      2.122919      1.161317
  C       1.109867      3.240705      2.161477
  H       0.991744      4.199063      1.661028
  H       2.062709      3.269699      2.692794
  H       0.317753      3.099028      2.891193
  H       3.197270     -1.833620      1.310687
  H       2.014682     -2.914869     -0.883946
