39
Generated by autodE on: 2023-08-13. E = -1288.400513 Ha
Ir    0.60815  -0.70812   0.42111
C     0.05759  -2.79730   0.33622
C     0.13143  -2.33836   1.70043
C     2.21992  -2.11523   0.75259
C     1.32491  -2.63940  -0.25408
C     1.49307  -1.96605   1.94830
N    -1.04879   0.17439  -0.53032
C    -2.31269   0.49752   0.14817
C    -3.12474   1.57000  -0.55964
H    -3.95021   1.86905   0.08488
H    -3.57073   1.22060  -1.49231
H    -2.53353   2.46330  -0.76353
C    -3.12040  -0.77837   0.35322
H    -2.01123   0.87949   1.12475
H    -4.02731  -0.54999   0.91098
H    -3.41721  -1.21735  -0.60019
H    -2.56907  -1.52463   0.92346
C    -0.85795   0.38699  -1.77415
C     0.49161   0.15214  -2.23991
H    -1.63714   0.75652  -2.43423
C     1.58484   0.44177  -1.42699
C     2.79470   0.02329  -2.05726
S     0.93030  -0.58757  -3.70833
C     2.59362  -0.54167  -3.27596
H     1.53088   1.34211  -0.68490
H     3.77636   0.18805  -1.63742
H     3.33470  -0.91518  -3.96632
H    -0.82829  -3.16760  -0.15948
H    -0.66060  -2.36699   2.43402
H     1.87379  -1.56001   2.87448
O     1.30625   2.48769   0.25701
O     0.53239   0.91914   1.64098
C     0.90120   2.12522   1.35714
C     0.83012   3.08358   2.51407
H     0.79153   4.11028   2.16047
H     1.72871   2.97343   3.12422
H    -0.02295   2.87861   3.15766
H     3.26703  -1.89065   0.61509
H     1.58911  -2.87951  -1.27349
