39
Generated by autodE on: 2023-08-14. E = -1288.399042 Ha
Ir    0.63033  -0.71550   0.41080
C     0.13398  -2.83304   0.33076
C    -0.00011  -2.37471   1.68784
C     2.19937  -2.07896   1.03815
C     1.47531  -2.65488  -0.06620
C     1.28385  -1.93716   2.11041
N    -1.05463   0.13545  -0.51809
C    -2.31702   0.37727   0.19617
C    -3.10979   1.55899  -0.34330
H    -3.93107   1.77254   0.33917
H    -3.55920   1.35845  -1.31685
H    -2.50155   2.46093  -0.41489
C    -3.14909  -0.90068   0.19555
H    -2.02049   0.60251   1.22151
H    -4.04816  -0.75610   0.79307
H    -3.45987  -1.16761  -0.81536
H    -2.60535  -1.74300   0.62016
C    -0.90595   0.43623  -1.75479
C     0.41615   0.23856  -2.27420
H    -1.71188   0.84699  -2.35448
C     1.46586   0.12722  -1.35627
C     2.68313  -0.15859  -2.05356
S     0.89356   0.00896  -3.88208
C     2.52089  -0.24736  -3.40035
H     1.56671   1.14054  -0.65816
H     3.64776  -0.23430  -1.57300
H     3.27755  -0.42615  -4.14906
H    -0.65340  -3.24929  -0.28076
H    -0.88813  -2.41857   2.29987
H     1.51016  -1.49888   3.07219
O     1.57367   2.38020   0.13450
O     0.56240   0.99348   1.55302
C     1.04522   2.13354   1.22519
C     0.96998   3.20023   2.28074
H     0.95802   4.18939   1.83076
H     1.85786   3.13413   2.91214
H     0.10110   3.06918   2.92125
H     3.25522  -1.85863   1.07007
H     1.88700  -2.91217  -1.03114
