! Opt PBEh-3c
%geom Constraints
{ B 0 20 2.6 C }
{ B 24 30 1.4428571428571428 C }
    end
end
%output 
xyzfile=True 
end 
%scf 
maxiter 250 
end
%output
Print[P_Hirshfeld] = 1
end
% maxcore
4000
*xyz 1 1
Ir   0.57530666  -0.73192943   0.47883455 
C    0.02300566  -2.81078215   0.33862541 
C    0.11371492  -2.37146268   1.71152940 
C    2.19161594  -2.14480293   0.75126572 
C    1.28336715  -2.64112790  -0.25878395 
C    1.48457513  -2.02098237   1.95871732 
N   -1.03974228   0.17769608  -0.51106408 
C   -2.31240153   0.52154453   0.14253790 
C   -3.13099919   1.54889770  -0.62185346 
H   -3.96538204   1.86710248   0.00153817 
H   -3.56417442   1.14914497  -1.54021444 
H   -2.55040258   2.43973773  -0.86368282 
C   -3.11068135  -0.74909019   0.40657363 
H   -2.02161106   0.95522020   1.10093324 
H   -4.02593902  -0.49995565   0.94129598 
H   -3.39349052  -1.24064688  -0.52528538 
H   -2.56139487  -1.45934421   1.02309974 
C   -0.82250767   0.37906045  -1.75196920 
C    0.53133048   0.14544896  -2.21422041 
H   -1.59417292   0.74168140  -2.42528888 
C    1.64544370   0.56949599  -1.50134186 
C    2.84128210   0.13814953  -2.14356795 
S    0.93803859  -0.70358298  -3.64293941 
C    2.61241737  -0.54891633  -3.29412452 
H    1.55404210   1.41900845  -0.70562403 
H    3.83267348   0.37712515  -1.78713063 
H    3.34052305  -0.95866373  -3.97779968 
H   -0.87030419  -3.16700387  -0.15394565 
H   -0.67133419  -2.41108332   2.45265619 
H    1.87809251  -1.64025371   2.89024790 
O    1.26928917   2.45442781   0.27930632 
O    0.54171708   0.88856692   1.69342057 
C    0.88951940   2.09889020   1.38926569 
C    0.82600363   3.06537799   2.53915877 
H    0.76876754   4.08808633   2.17654973 
H    1.73626693   2.97235992   3.13471078 
H   -0.01314283   2.85623829   3.19949103 
H    3.23421012  -1.90751123   0.59882912 
H    1.53584794  -2.84693150  -1.28901073 
*
