39
Generated by autodE on: 2023-08-14. E = -1288.393043 Ha
Ir    0.63077  -0.72754   0.37695
C     0.18256  -2.85522   0.30226
C    -0.05918  -2.42677   1.65672
C     2.16842  -2.04951   1.16377
C     1.55227  -2.65312   0.01738
C     1.16195  -1.94896   2.17045
N    -1.07333   0.12279  -0.51434
C    -2.33021   0.32810   0.21838
C    -3.12113   1.54168  -0.24804
H    -3.94207   1.71429   0.44610
H    -3.56984   1.40306  -1.23264
H    -2.51034   2.44465  -0.26381
C    -3.16520  -0.94619   0.14613
H    -2.02927   0.49396   1.25388
H    -4.05598  -0.84099   0.76403
H    -3.48938  -1.14602  -0.87595
H    -2.61633  -1.81542   0.50466
C    -0.93460   0.48111  -1.73827
C     0.38126   0.28281  -2.26397
H    -1.73924   0.92904  -2.31140
C     1.38889   0.00573  -1.32233
C     2.62126  -0.23687  -2.02549
S     0.91026   0.26784  -3.86807
C     2.50662  -0.12565  -3.37439
H     1.58548   1.11998  -0.74289
H     3.56521  -0.42075  -1.53259
H     3.28455  -0.22905  -4.11552
H    -0.53906  -3.30567  -0.36340
H    -0.99198  -2.49024   2.19563
H     1.30006  -1.50641   3.14678
O     1.65909   2.36684   0.03494
O     0.60660   1.02642   1.46973
C     1.11573   2.14443   1.12920
C     1.06414   3.23890   2.15737
H     0.98757   4.21261   1.68003
H     1.99334   3.22771   2.72984
H     0.24136   3.09635   2.85290
H     3.21510  -1.81854   1.28743
H     2.04404  -2.90619  -0.91073
