39
Coordinates from ORCA-job reaction4-IEIP_ts_guess_scan_1-8_orca E -1288.394297439878
  Ir      0.568570     -0.732690      0.479129
  C       0.016328     -2.810178      0.340022
  C       0.110128     -2.374001      1.713181
  C       2.186167     -2.144942      0.748039
  C       1.275322     -2.638771     -0.260880
  C       1.481397     -2.022741      1.957164
  N      -1.048075      0.169965     -0.511077
  C      -2.323686      0.505708      0.141978
  C      -3.140939      1.540892     -0.613770
  H      -3.975428      1.854336      0.011938
  H      -3.574106      1.150456     -1.536087
  H      -2.559190      2.433158     -0.847397
  C      -3.123022     -0.767376      0.390661
  H      -2.036940      0.930300      1.105708
  H      -4.041266     -0.523489      0.922733
  H      -3.400573     -1.250755     -0.547037
  H      -2.576768     -1.482973      1.003665
  C      -0.830581      0.370418     -1.751424
  C       0.525245      0.148378     -2.205075
  H      -1.603596      0.725399     -2.427401
  C       1.627483      0.550844     -1.462578
  C       2.831338      0.136757     -2.100923
  S       0.950297     -0.655739     -3.654919
  C       2.618949     -0.513207     -3.276865
  H       1.526667      1.412454     -0.644075
  H       3.818453      0.362080     -1.723828
  H       3.357056     -0.901354     -3.962610
  H      -0.878092     -3.165296     -0.151395
  H      -0.673174     -2.415724      2.456013
  H       1.877316     -1.644216      2.888579
  O       1.305521      2.442613      0.255964
  O       0.544869      0.902021      1.680570
  C       0.914407      2.100599      1.369766
  C       0.867237      3.081532      2.506928
  H       0.817276      4.100519      2.132941
  H       1.780926      2.986856      3.097087
  H       0.030579      2.887029      3.174704
  H       3.228425     -1.907386      0.593629
  H       1.524850     -2.842284     -1.292316
39
Coordinates from ORCA-job reaction4-IEIP_ts_guess_scan_1-8_orca E -1288.392501184011
  Ir      0.572316     -0.718068      0.468266
  C       0.037942     -2.799914      0.308632
  C       0.121558     -2.376900      1.686324
  C       2.200023     -2.120216      0.733262
  C       1.298254     -2.612436     -0.284433
  C       1.488252     -2.015121      1.939866
  N      -1.056183      0.178077     -0.516652
  C      -2.328055      0.517905      0.140367
  C      -3.152307      1.541261     -0.623761
  H      -3.984307      1.860312      0.002428
  H      -3.589172      1.137988     -1.538812
  H      -2.574310      2.432087     -0.871798
  C      -3.121722     -0.754469      0.409637
  H      -2.036361      0.955041      1.096989
  H      -4.037186     -0.506889      0.944781
  H      -3.403930     -1.249994     -0.520283
  H      -2.569073     -1.460857      1.027630
  C      -0.846735      0.362127     -1.761800
  C       0.509137      0.135977     -2.212972
  H      -1.623897      0.702026     -2.440757
  C       1.606399      0.573149     -1.481711
  C       2.813336      0.129209     -2.094980
  S       0.941309     -0.728977     -3.624685
  C       2.607420     -0.575433     -3.239979
  H       1.504396      1.504629     -0.731017
  H       3.798620      0.377017     -1.727436
  H       3.349411     -0.992185     -3.904307
  H      -0.850962     -3.158160     -0.190426
  H      -0.664531     -2.433404      2.425145
  H       1.876442     -1.642058      2.876708
  O       1.412075      2.409199      0.314657
  O       0.521243      0.901011      1.689881
  C       0.942699      2.086773      1.404633
  C       0.860715      3.071888      2.536027
  H       0.865575      4.090988      2.158939
  H       1.734788      2.949567      3.178734
  H      -0.019431      2.906056      3.153617
  H       3.241045     -1.873061      0.586310
  H       1.554577     -2.804952     -1.316283
39
Coordinates from ORCA-job reaction4-IEIP_ts_guess_scan_1-8_orca E -1288.394337339955
  Ir      0.573784     -0.733577      0.480279
  C       0.023059     -2.812736      0.338138
  C       0.110828     -2.380015      1.712532
  C       2.190669     -2.145943      0.755551
  C       1.284486     -2.639282     -0.257612
  C       1.480309     -2.026340      1.961896
  N      -1.045387      0.171558     -0.509798
  C      -2.318920      0.508760      0.144722
  C      -3.134625      1.544582     -0.611734
  H      -3.968784      1.859783      0.013529
  H      -3.567953      1.153967     -1.533943
  H      -2.551543      2.435817     -0.846048
  C      -3.119043     -0.763501      0.394588
  H      -2.030230      0.933079      1.107999
  H      -4.036116     -0.518631      0.928216
  H      -3.398676     -1.246525     -0.542660
  H      -2.572232     -1.479563      1.006638
  C      -0.829394      0.379009     -1.751363
  C       0.525768      0.158168     -2.212833
  H      -1.603902      0.740002     -2.422418
  C       1.632556      0.543694     -1.465630
  C       2.831598      0.119505     -2.108427
  S       0.942633     -0.641964     -3.666864
  C       2.612579     -0.520840     -3.287695
  H       1.549616      1.430532     -0.657665
  H       3.821341      0.335231     -1.732716
  H       3.346513     -0.910479     -3.976937
  H      -0.868917     -3.168168     -0.157437
  H      -0.674899     -2.425217      2.452480
  H       1.872045     -1.648993      2.895537
  O       1.278413      2.436724      0.255698
  O       0.535712      0.898983      1.688015
  C       0.899051      2.097242      1.375213
  C       0.852370      3.082694      2.508216
  H       0.793087      4.099812      2.130397
  H       1.770340      2.996756      3.092975
  H       0.021218      2.885098      3.181762
  H       3.233448     -1.907993      0.606174
  H       1.538571     -2.842037     -1.288034
39
Coordinates from ORCA-job reaction4-IEIP_ts_guess_scan_1-8_orca E -1288.392292369766
  Ir      0.559395     -0.741948      0.489690
  C      -0.008719     -2.818482      0.392374
  C       0.081840     -2.356773      1.756796
  C       2.164084     -2.161001      0.796793
  C       1.254366     -2.669099     -0.205733
  C       1.453865     -2.009237      1.999529
  N      -1.054550      0.148340     -0.522851
  C      -2.332105      0.482390      0.126728
  C      -3.153157      1.509973     -0.635270
  H      -3.990143      1.822655     -0.012517
  H      -3.582976      1.112760     -1.556269
  H      -2.575283      2.403810     -0.872506
  C      -3.125794     -0.793074      0.381169
  H      -2.048233      0.912826      1.088652
  H      -4.045268     -0.550866      0.911903
  H      -3.400874     -1.282089     -0.554318
  H      -2.576132     -1.503151      0.997538
  C      -0.841355      0.352583     -1.764875
  C       0.515267      0.159813     -2.231659
  H      -1.619110      0.714159     -2.431621
  C       1.613551      0.525204     -1.465319
  C       2.822191      0.182733     -2.137446
  S       0.946765     -0.548901     -3.727803
  C       2.615477     -0.386979     -3.355137
  H       1.495885      1.325419     -0.583195
  H       3.806950      0.398644     -1.748800
  H       3.356576     -0.711601     -4.070061
  H      -0.903406     -3.176926     -0.096138
  H      -0.704812     -2.379018      2.496817
  H       1.848015     -1.614793      2.925067
  O       1.519301      2.392110      0.301015
  O       0.536601      0.918490      1.664908
  C       1.000258      2.089026      1.374919
  C       0.914993      3.086370      2.494982
  H       0.962618      4.101316      2.109835
  H       1.765175      2.943238      3.164878
  H       0.011888      2.953054      3.086852
  H       3.208985     -1.935146      0.643081
  H       1.507241     -2.896639     -1.231267
39
Coordinates from ORCA-job reaction4-IEIP_ts_guess_scan_1-8_orca E -1288.394438441955
  Ir      0.566881     -0.729785      0.484056
  C       0.014530     -2.809003      0.355938
  C       0.099687     -2.367016      1.727277
  C       2.181721     -2.141306      0.772860
  C       1.277341     -2.640960     -0.238632
  C       1.468669     -2.012427      1.976757
  N      -1.048672      0.167277     -0.512650
  C      -2.326805      0.495911      0.138414
  C      -3.147049      1.529332     -0.616569
  H      -3.984728      1.837213      0.007643
  H      -3.575803      1.139206     -1.541092
  H      -2.569044      2.425043     -0.846341
  C      -3.121103     -0.781239      0.382305
  H      -2.043733      0.918993      1.103894
  H      -4.041077     -0.542813      0.913900
  H      -3.395372     -1.263023     -0.557169
  H      -2.572333     -1.496113      0.993841
  C      -0.831159      0.379104     -1.753124
  C       0.522836      0.163606     -2.219324
  H      -1.607197      0.738983     -2.422781
  C       1.632071      0.532749     -1.467959
  C       2.829331      0.125353     -2.123963
  S       0.935605     -0.601313     -3.692936
  C       2.606836     -0.486781     -3.317517
  H       1.553416      1.398995     -0.638163
  H       3.820078      0.331195     -1.745271
  H       3.338625     -0.860318     -4.017862
  H      -0.876761     -3.166952     -0.139059
  H      -0.687611     -2.406384      2.465857
  H       1.858710     -1.628654      2.908486
  O       1.375049      2.422794      0.278474
  O       0.526441      0.910972      1.681102
  C       0.937739      2.096899      1.381128
  C       0.877095      3.085657      2.510430
  H       0.864494      4.103344      2.129819
  H       1.768081      2.972357      3.131145
  H       0.014127      2.915206      3.150593
  H       3.225126     -1.905527      0.624243
  H       1.533327     -2.851385     -1.267006
39
Coordinates from ORCA-job reaction4-IEIP_ts_guess_scan_1-8_orca E -1288.394464763826
  Ir      0.572006     -0.735113      0.482905
  C       0.011919     -2.812543      0.357739
  C       0.098380     -2.369556      1.728524
  C       2.181512     -2.152585      0.774230
  C       1.275399     -2.649966     -0.236898
  C       1.468535     -2.019397      1.977687
  N      -1.045221      0.166538     -0.514698
  C      -2.321981      0.497863      0.137885
  C      -3.141025      1.533128     -0.615871
  H      -3.977399      1.842414      0.009397
  H      -3.571598      1.144221     -1.540050
  H      -2.561630      2.427857     -0.845936
  C      -3.119132     -0.777394      0.382451
  H      -2.036972      0.920377      1.103069
  H      -4.038110     -0.536643      0.914707
  H      -3.395274     -1.258576     -0.556771
  H      -2.571691     -1.493519      0.993603
  C      -0.831036      0.374274     -1.756526
  C       0.522613      0.163062     -2.221750
  H      -1.608445      0.731651     -2.425972
  C       1.626912      0.538219     -1.467679
  C       2.828054      0.134280     -2.118220
  S       0.942079     -0.610893     -3.688355
  C       2.611843     -0.482854     -3.310679
  H       1.541594      1.416916     -0.650014
  H       3.816641      0.347559     -1.737985
  H       3.347404     -0.854272     -4.008190
  H      -0.880570     -3.167707     -0.137112
  H      -0.689135     -2.405481      2.467041
  H       1.859792     -1.635959      2.909044
  O       1.327798      2.437663      0.262439
  O       0.535748      0.907247      1.680566
  C       0.920166      2.100334      1.373454
  C       0.878272      3.083065      2.508668
  H       0.841751      4.102248      2.133659
  H       1.787667      2.978642      3.103752
  H       0.035828      2.898154      3.171747
  H       3.225930     -1.921254      0.625799
  H       1.530744     -2.862810     -1.264918
39
Coordinates from ORCA-job reaction4-IEIP_ts_guess_scan_1-8_orca E -1288.394480150366
  Ir      0.572259     -0.735011      0.483431
  C       0.012990     -2.812146      0.357130
  C       0.098490     -2.369907      1.728109
  C       2.182131     -2.151759      0.774960
  C       1.276792     -2.648933     -0.236871
  C       1.468296     -2.019285      1.978086
  N      -1.043841      0.165412     -0.513631
  C      -2.320043      0.497482      0.139745
  C      -3.137859      1.534851     -0.612455
  H      -3.973403      1.844747      0.013627
  H      -3.569581      1.147715     -1.536838
  H      -2.557162      2.428916     -0.841819
  C      -3.119171     -0.776789      0.383186
  H      -2.034187      0.918607      1.105281
  H      -4.037754     -0.535106      0.915700
  H      -3.396098     -1.256664     -0.556477
  H      -2.572881     -1.494362      0.993654
  C      -0.830619      0.373158     -1.755585
  C       0.522517      0.162671     -2.222883
  H      -1.608865      0.730635     -2.424033
  C       1.627611      0.535453     -1.468781
  C       2.828363      0.131638     -2.120077
  S       0.941274     -0.600672     -3.695047
  C       2.611061     -0.483117     -3.313641
  H       1.542545      1.411850     -0.648211
  H       3.817244      0.340176     -1.738027
  H       3.345933     -0.855948     -4.011138
  H      -0.879118     -3.167226     -0.138472
  H      -0.689482     -2.406255      2.466098
  H       1.858868     -1.636004      2.909793
  O       1.333443      2.434256      0.263472
  O       0.535625      0.906012      1.680503
  C       0.924377      2.097647      1.374292
  C       0.871918      3.083953      2.506037
  H       0.834180      4.101850      2.127670
  H       1.778089      2.984449      3.106847
  H       0.026117      2.898240      3.164627
  H       3.226595     -1.920097      0.627332
  H       1.532716     -2.861250     -1.264853
39
Coordinates from ORCA-job reaction4-IEIP_ts_guess_scan_1-8_orca E -1288.394487933463
  Ir      0.570952     -0.734302      0.485889
  C       0.013541     -2.811484      0.358090
  C       0.096786     -2.369831      1.729333
  C       2.181635     -2.149667      0.779019
  C       1.278099     -2.647136     -0.234232
  C       1.465915     -2.018163      1.981227
  N      -1.043526      0.164087     -0.512440
  C      -2.320166      0.495933      0.140300
  C      -3.136600      1.534989     -0.611138
  H      -3.972143      1.844973      0.014910
  H      -3.568311      1.149454     -1.536196
  H      -2.554853      2.428718     -0.839159
  C      -3.120516     -0.778024      0.381431
  H      -2.034904      0.915670      1.106590
  H      -4.039481     -0.536281      0.913258
  H      -3.396808     -1.256586     -0.559093
  H      -2.575449     -1.496782      0.991631
  C      -0.830265      0.371548     -1.754482
  C       0.522415      0.160543     -2.223393
  H      -1.609238      0.727742     -2.422785
  C       1.628721      0.530061     -1.468974
  C       2.828868      0.130535     -2.123987
  S       0.939762     -0.598051     -3.698293
  C       2.610189     -0.477315     -3.320853
  H       1.544040      1.404247     -0.645431
  H       3.818153      0.338026     -1.742483
  H       3.344217     -0.845122     -4.021903
  H      -0.877622     -3.166929     -0.138967
  H      -0.692237     -2.406860      2.466149
  H       1.854898     -1.634824      2.913579
  O       1.340559      2.428462      0.265494
  O       0.532821      0.906299      1.682238
  C       0.924423      2.096418      1.375098
  C       0.872662      3.085167      2.504877
  H       0.839277      4.102437      2.124460
  H       1.777123      2.983827      3.107990
  H       0.024728      2.903596      3.161869
  H       3.226169     -1.917259      0.633053
  H       1.535538     -2.858925     -1.261937
39
Coordinates from ORCA-job reaction4-IEIP_ts_guess_scan_1-8_orca E -1288.394495560145
  Ir      0.571678     -0.734939      0.487151
  C       0.013261     -2.811810      0.359482
  C       0.096042     -2.370088      1.730711
  C       2.181583     -2.151217      0.781407
  C       1.278238     -2.648323     -0.232256
  C       1.465245     -2.019075      1.983193
  N      -1.043044      0.163481     -0.512344
  C      -2.320043      0.494393      0.140355
  C      -3.135419      1.535850     -0.608999
  H      -3.970891      1.845082      0.017522
  H      -3.567244      1.152911     -1.535079
  H      -2.552818      2.429587     -0.834785
  C      -3.121225     -0.779732      0.377706
  H      -2.035354      0.911639      1.107870
  H      -4.040518     -0.538804      0.909331
  H      -3.396944     -1.255870     -0.564216
  H      -2.577060     -1.500299      0.986602
  C      -0.830622      0.370766     -1.754677
  C       0.521610      0.161105     -2.224631
  H      -1.610574      0.725538     -2.422589
  C       1.627591      0.529031     -1.468970
  C       2.828069      0.130807     -2.123825
  S       0.939750     -0.594287     -3.700810
  C       2.609900     -0.474728     -3.322047
  H       1.542087      1.404031     -0.645910
  H       3.817155      0.337281     -1.741288
  H       3.344217     -0.841222     -4.023476
  H      -0.877831     -3.166783     -0.138064
  H      -0.693413     -2.406508      2.467095
  H       1.853991     -1.635805      2.915677
  O       1.337384      2.429289      0.263567
  O       0.535010      0.907097      1.683425
  C       0.924090      2.097467      1.374404
  C       0.874498      3.087099      2.503482
  H       0.837831      4.103972      2.122329
  H       1.781381      2.987991      3.103324
  H       0.029336      2.904463      3.163739
  H       3.226392     -1.919643      0.636113
  H       1.536030     -2.860555     -1.259778
39
Coordinates from ORCA-job reaction4-IEIP_ts_guess_scan_1-8_orca E -1288.394505283546
  Ir      0.572620     -0.735713      0.489989
  C       0.013615     -2.812095      0.360936
  C       0.094323     -2.370967      1.732433
  C       2.181630     -2.152697      0.786587
  C       1.279646     -2.649016     -0.228741
  C       1.463267     -2.020517      1.987183
  N      -1.041395      0.161923     -0.511351
  C      -2.318657      0.492014      0.141540
  C      -3.131200      1.538901     -0.603476
  H      -3.965914      1.847658      0.024310
  H      -3.564094      1.161421     -1.531287
  H      -2.545997      2.431914     -0.825282
  C      -3.122390     -0.781813      0.371653
  H      -2.034504      0.904106      1.111410
  H      -4.042033     -0.541843      0.903117
  H      -3.397526     -1.252997     -0.572921
  H      -2.580339     -1.506295      0.977811
  C      -0.830867      0.367877     -1.754365
  C       0.520332      0.160411     -2.226555
  H      -1.612791      0.719895     -2.421441
  C       1.626179      0.525404     -1.469240
  C       2.826888      0.130644     -2.125082
  S       0.939115     -0.589515     -3.705104
  C       2.608977     -0.470226     -3.325892
  H       1.539473      1.401715     -0.646771
  H       3.815846      0.335992     -1.741649
  H       3.343423     -0.833357     -4.028937
  H      -0.876756     -3.166432     -0.138363
  H      -0.696468     -2.407041      2.467398
  H       1.850701     -1.637657      2.920384
  O       1.332403      2.428721      0.260194
  O       0.537548      0.907302      1.685370
  C       0.923582      2.097652      1.373117
  C       0.874695      3.089892      2.499858
  H       0.831505      4.105613      2.116331
  H       1.785054      2.996521      3.095336
  H       0.033682      2.904958      3.164734
  H       3.226909     -1.921957      0.643404
  H       1.538892     -2.861206     -1.255897
39
Coordinates from ORCA-job reaction4-IEIP_ts_guess_scan_1-8_orca E -1288.394508983660
  Ir      0.572634     -0.735270      0.491913
  C       0.014856     -2.811825      0.361465
  C       0.093472     -2.371079      1.733208
  C       2.182015     -2.151507      0.790306
  C       1.281587     -2.647887     -0.226416
  C       1.461923     -2.020058      1.989945
  N      -1.041017      0.160755     -0.510583
  C      -2.318672      0.489708      0.142293
  C      -3.129059      1.540659     -0.599419
  H      -3.963344      1.848910      0.029200
  H      -3.562529      1.167350     -1.528641
  H      -2.541883      2.433148     -0.818031
  C      -3.123984     -0.784207      0.366381
  H      -2.035265      0.897662      1.114120
  H      -4.044060     -0.545497      0.897680
  H      -3.398360     -1.251418     -0.580384
  H      -2.583316     -1.511637      0.970251
  C      -0.831596      0.366105     -1.753958
  C       0.519051      0.160318     -2.227629
  H      -1.614809      0.716496     -2.420404
  C       1.625197      0.523128     -1.469597
  C       2.825697      0.129258     -2.125939
  S       0.937808     -0.584359     -3.708754
  C       2.607448     -0.469037     -3.328090
  H       1.538589      1.399307     -0.646517
  H       3.814775      0.332598     -1.741757
  H       3.341675     -0.831490     -4.031722
  H      -0.874592     -3.166458     -0.139262
  H      -0.698397     -2.407582      2.466991
  H       1.847940     -1.637330      2.923788
  O       1.332414      2.427820      0.258942
  O       0.537594      0.908366      1.686267
  C       0.922974      2.098402      1.372193
  C       0.876207      3.091866      2.497914
  H       0.831193      4.107086      2.113273
  H       1.788327      3.000042      3.090952
  H       0.037171      2.906971      3.165260
  H       3.227459     -1.920479      0.648804
  H       1.542245     -2.859645     -1.253304
