! Opt PBEh-3c
%geom Constraints
{ B 0 20 2.428571428571429 C }
{ B 24 30 1.3857142857142857 C }
    end
end
%output 
xyzfile=True 
end 
%scf 
maxiter 250 
end
%output
Print[P_Hirshfeld] = 1
end
% maxcore
4000
*xyz 1 1
Ir   0.58613867  -0.72596337   0.47482985 
C    0.03197684  -2.80765983   0.36308165 
C    0.09220296  -2.35799115   1.73157469 
C    2.19258998  -2.13790399   0.81055964 
C    1.30592443  -2.64703064  -0.21152616 
C    1.45448335  -1.99656444   1.99938774 
N   -1.04355544   0.15627735  -0.51585837 
C   -2.31914136   0.47101373   0.14767909 
C   -3.12233922   1.55151069  -0.55890158 
H   -3.95311642   1.84696381   0.08047561 
H   -3.56060117   1.21154613  -1.49856888 
H   -2.52721073   2.44489245  -0.75038084 
C   -3.13141774  -0.80566365   0.32806667 
H   -2.03399984   0.84400871   1.13278176 
H   -4.04920228  -0.58121677   0.86951075 
H   -3.40964710  -1.23763095  -0.63413913 
H   -2.59241791  -1.55676926   0.90366055 
C   -0.84737564   0.37000663  -1.76043838 
C    0.49952521   0.16792314  -2.24100191 
H   -1.63663806   0.72317264  -2.41794995 
C    1.59918237   0.45989911  -1.44231172 
C    2.80368360   0.07624139  -2.09794629 
S    0.92887306  -0.51023597  -3.74654162 
C    2.59389869  -0.45190475  -3.33398745 
H    1.53336006   1.35753334  -0.63739190 
H    3.78968225   0.23865406  -1.68736413 
H    3.33201666  -0.79135180  -4.04494331 
H   -0.84960786  -3.16988227  -0.14606550 
H   -0.70831865  -2.39077277   2.45584425 
H    1.82730832  -1.60260446   2.93396242 
O    1.35817026   2.43066501   0.24447938 
O    0.53444998   0.92403026   1.66731455 
C    0.93418954   2.10819248   1.35533992 
C    0.88496286   3.10741427   2.47587089 
H    0.84755654   4.12122549   2.08673367 
H    1.79291222   3.01352576   3.07494331 
H    0.04064991   2.92925941   3.13830585 
H    3.24079003  -1.91163164   0.68373144 
H    1.57943161  -2.87198811  -1.23207644 
*
