39
Generated by autodE on: 2023-08-14. E = -1288.392910 Ha
Ir    0.57058  -0.74013   0.51563
C     0.01788  -2.81793   0.38331
C     0.06101  -2.37144   1.75419
C     2.17388  -2.15322   0.86380
C     1.29913  -2.65432  -0.17278
C     1.42177  -2.01709   2.04360
N    -1.03804   0.14274  -0.50199
C    -2.32245   0.45243   0.14921
C    -3.11223   1.54638  -0.55236
H    -3.94736   1.83990   0.08223
H    -3.54343   1.22006  -1.49998
H    -2.50914   2.43752  -0.72831
C    -3.14238  -0.82317   0.30071
H    -2.05087   0.81097   1.14355
H    -4.06720  -0.60325   0.83203
H    -3.40818  -1.24093  -0.67127
H    -2.61429  -1.58441   0.87317
C    -0.83728   0.35262  -1.74749
C     0.50742   0.17005  -2.23905
H    -1.63281   0.69303  -2.40470
C     1.61782   0.48726  -1.46826
C     2.81272   0.12635  -2.15095
S     0.91588  -0.48904  -3.76375
C     2.58626  -0.39940  -3.38635
H     1.54718   1.37919  -0.61597
H     3.80514   0.30322  -1.76225
H     3.31647  -0.72183  -4.11328
H    -0.85719  -3.17745  -0.13875
H    -0.74942  -2.40634   2.46744
H     1.78297  -1.63013   2.98563
O     1.39208   2.40045   0.24208
O     0.53812   0.92701   1.68321
C     0.95528   2.09867   1.35685
C     0.91611   3.11870   2.45753
H     0.85726   4.12419   2.04960
H     1.83947   3.04974   3.03618
H     0.08915   2.94217   3.14149
H     3.22305  -1.92462   0.74912
H     1.58499  -2.86875  -1.19235
