39
Generated by autodE on: 2023-08-15. E = -1288.396983 Ha
Ir    0.62460  -0.72679   0.39200
C     0.16643  -2.85022   0.31581
C    -0.06265  -2.41074   1.66837
C     2.16530  -2.05526   1.15818
C     1.53350  -2.65462   0.01666
C     1.16964  -1.94085   2.17088
N    -1.07241   0.12336  -0.51395
C    -2.33511   0.32615   0.21033
C    -3.13095   1.53161  -0.26891
H    -3.95566   1.70503   0.42052
H    -3.57495   1.38236  -1.25410
H    -2.52544   2.43802  -0.28954
C    -3.16319  -0.95271   0.14226
H    -2.04154   0.50126   1.24644
H    -4.06009  -0.84647   0.75110
H    -3.47717  -1.16331  -0.88086
H    -2.61393  -1.81618   0.51378
C    -0.92821   0.48081  -1.73726
C     0.38870   0.29074  -2.26447
H    -1.73386   0.92325  -2.31357
C     1.40737   0.03110  -1.33604
C     2.63190  -0.21696  -2.04329
S     0.90118   0.25374  -3.87594
C     2.50303  -0.12573  -3.39356
H     1.60335   1.12367  -0.69781
H     3.58100  -0.39193  -1.55725
H     3.27374  -0.23806  -4.14091
H    -0.56482  -3.29426  -0.34366
H    -0.99014  -2.46846   2.21706
H     1.31951  -1.49610   3.14453
O     1.69749   2.34057   0.07169
O     0.58847   1.02664   1.48650
C     1.12526   2.13346   1.15560
C     1.07252   3.23543   2.17459
H     0.97355   4.20295   1.68829
H     2.01170   3.24639   2.73042
H     0.26268   3.08784   2.88377
H     3.21392  -1.82680   1.26943
H     2.01467  -2.90973  -0.91636
