! Opt PBEh-3c
%geom Constraints
{ B 0 20 2.3 C }
{ B 24 30 1.3571428571428572 C }
    end
end
%output 
xyzfile=True 
end 
%scf 
maxiter 250 
end
%output
Print[P_Hirshfeld] = 1
end
% maxcore
4000
*xyz 1 1
Ir   0.60297761  -0.72838964   0.47141417 
C    0.06468907  -2.82129113   0.37907865 
C    0.02159487  -2.35435707   1.74002087 
C    2.18516321  -2.12427461   0.96665420 
C    1.37873008  -2.66373073  -0.10304378 
C    1.35161003  -1.96544646   2.09291250 
N   -1.04283340   0.13135604  -0.51388349 
C   -2.31960870   0.39867556   0.16906269 
C   -3.10684804   1.55069211  -0.43749046 
H   -3.93667640   1.79711792   0.22347362 
H   -3.54486921   1.30258313  -1.40524824 
H   -2.49862764   2.44897369  -0.54586814 
C   -3.14827281  -0.87974803   0.22098983 
H   -2.03999193   0.67441349   1.18693866 
H   -4.06259173  -0.70306801   0.78577002 
H   -3.43289148  -1.20694381  -0.77988140 
H   -2.61516670  -1.69314642   0.71061906 
C   -0.87232361   0.38923656  -1.75645344 
C    0.45968012   0.21439522  -2.27062782 
H   -1.67945970   0.75854498  -2.38220841 
C    1.54880235   0.29774041  -1.41046050 
C    2.75170807  -0.01577127  -2.10509624 
S    0.89350986  -0.19969057  -3.86338810 
C    2.54753668  -0.29539856  -3.42216307 
H    1.55757764   1.25455064  -0.60049248 
H    3.73455751   0.02129597  -1.65828814 
H    3.28742380  -0.53215841  -4.17170857 
H   -0.77172607  -3.20560428  -0.18678735 
H   -0.82860916  -2.38255517   2.40498256 
H    1.64962474  -1.54564175   3.04321257 
O    1.50438050   2.37351383   0.19065085 
O    0.54184915   0.96567918   1.62337755 
C    1.00770745   2.11203605   1.29512861 
C    0.95474853   3.16605818   2.36230429 
H    0.93759906   4.16063288   1.92485862 
H    1.85328155   3.08957800   2.97765327 
H    0.09759004   3.02908205   3.01736876 
H    3.24184616  -1.90837035   0.92282350 
H    1.72567842  -2.91137955  -1.09546520 
*
