39
Coordinates from ORCA-job reaction4-IEIP_ts_guess_scan_3-7_orca E -1288.396785418813
  Ir      0.582331     -0.723202      0.459879
  C       0.029773     -2.803772      0.340299
  C       0.115184     -2.360060      1.710428
  C       2.197206     -2.134518      0.753220
  C       1.292430     -2.637892     -0.256062
  C       1.483215     -2.001990      1.956856
  N      -1.050245      0.166700     -0.518247
  C      -2.322887      0.493037      0.144893
  C      -3.135597      1.550586     -0.584670
  H      -3.965456      1.856397      0.050979
  H      -3.575498      1.184586     -1.513805
  H      -2.547504      2.443127     -0.800572
  C      -3.127917     -0.781951      0.364304
  H      -2.032578      0.893040      1.117889
  H      -4.043444     -0.546838      0.904993
  H      -3.410208     -1.240771     -0.584220
  H      -2.582761     -1.514955      0.957284
  C      -0.845168      0.371537     -1.760393
  C       0.507953      0.152997     -2.218633
  H      -1.623870      0.726351     -2.429647
  C       1.602244      0.494987     -1.433201
  C       2.812024      0.088406     -2.065624
  S       0.947577     -0.596590     -3.688817
  C       2.611095     -0.503708     -3.273605
  H       1.515938      1.376665     -0.632794
  H       3.795093      0.279237     -1.660060
  H       3.354733     -0.873472     -3.963489
  H      -0.861345     -3.163179     -0.154053
  H      -0.671876     -2.397350      2.449288
  H       1.873389     -1.614333      2.886960
  O       1.319591      2.449409      0.245082
  O       0.541047      0.913980      1.664105
  C       0.918831      2.109409      1.356970
  C       0.870126      3.092404      2.492373
  H       0.822464      4.111004      2.117061
  H       1.782444      2.997213      3.084573
  H       0.031652      2.899675      3.158336
  H       3.241648     -1.902651      0.606123
  H       1.547736     -2.854321     -1.283266
39
Coordinates from ORCA-job reaction4-IEIP_ts_guess_scan_3-7_orca E -1288.394900929283
  Ir      0.586608     -0.707240      0.449088
  C       0.053160     -2.792857      0.306480
  C       0.127022     -2.363865      1.681676
  C       2.211999     -2.108267      0.738453
  C       1.317520     -2.609486     -0.280904
  C       1.489870     -1.994610      1.939188
  N      -1.057745      0.175939     -0.523407
  C      -2.326428      0.507074      0.143669
  C      -3.146197      1.552447     -0.595398
  H      -3.973551      1.864405      0.040522
  H      -3.589794      1.172643     -1.517231
  H      -2.561878      2.443681     -0.826465
  C      -3.125795     -0.767490      0.384810
  H      -2.030930      0.920474      1.109483
  H      -4.038341     -0.528354      0.928747
  H      -3.413047     -1.239276     -0.555814
  H      -2.573988     -1.491039      0.983305
  C      -0.860994      0.362390     -1.770625
  C       0.491891      0.137573     -2.226186
  H      -1.643743      0.701368     -2.443322
  C       1.581859      0.518861     -1.451994
  C       2.793639      0.080996     -2.060830
  S       0.936306     -0.678967     -3.658274
  C       2.597532     -0.571499     -3.237854
  H       1.497237      1.472335     -0.725363
  H       3.775558      0.297418     -1.665558
  H       3.344134     -0.972262     -3.906801
  H      -0.831753     -3.155483     -0.196552
  H      -0.663388     -2.417276      2.415875
  H       1.871199     -1.613240      2.875524
  O       1.421903      2.415667      0.306358
  O       0.516090      0.912521      1.674940
  C       0.944359      2.095286      1.394268
  C       0.861253      3.081959      2.524307
  H       0.867633      4.100783      2.146513
  H       1.734333      2.959366      3.168314
  H      -0.020036      2.917167      3.140492
  H       3.255216     -1.866203      0.599902
  H       1.580658     -2.813749     -1.308594
39
Coordinates from ORCA-job reaction4-IEIP_ts_guess_scan_3-7_orca E -1288.396857056090
  Ir      0.587099     -0.723632      0.461873
  C       0.036106     -2.806421      0.339382
  C       0.114626     -2.366128      1.710697
  C       2.200948     -2.135260      0.762970
  C       1.301579     -2.638455     -0.251033
  C       1.480499     -2.005300      1.963354
  N      -1.047467      0.168381     -0.516509
  C      -2.318351      0.495839      0.147541
  C      -3.129460      1.553848     -0.583046
  H      -3.959562      1.860953      0.051645
  H      -3.568662      1.187576     -1.512444
  H      -2.540271      2.445651     -0.799093
  C      -3.123794     -0.778719      0.367436
  H      -2.026688      0.895379      1.120316
  H      -4.038385     -0.543287      0.909538
  H      -3.407662     -1.236930     -0.580895
  H      -2.577850     -1.512164      0.959260
  C      -0.843663      0.379744     -1.759807
  C       0.508847      0.162113     -2.225631
  H      -1.623461      0.741102     -2.424222
  C       1.607344      0.486240     -1.436355
  C       2.811936      0.072651     -2.076534
  S       0.939082     -0.583051     -3.700439
  C       2.603964     -0.508915     -3.287637
  H       1.540529      1.391536     -0.646477
  H       3.797796      0.254816     -1.673846
  H       3.343141     -0.878483     -3.982278
  H      -0.852182     -3.166465     -0.159543
  H      -0.675315     -2.406960      2.446171
  H       1.865745     -1.618718      2.895938
  O       1.296416      2.442361      0.245810
  O       0.531186      0.911478      1.671939
  C       0.905086      2.106003      1.363008
  C       0.856464      3.093837      2.493929
  H       0.801881      4.110605      2.114480
  H       1.771847      3.005958      3.082447
  H       0.021889      2.899532      3.164147
  H       3.246010     -1.903133      0.621627
  H       1.562127     -2.854394     -1.276980
39
Coordinates from ORCA-job reaction4-IEIP_ts_guess_scan_3-7_orca E -1288.394920920828
  Ir      0.573088     -0.732104      0.468948
  C       0.005132     -2.812019      0.392213
  C       0.087499     -2.342613      1.753263
  C       2.175340     -2.149276      0.800761
  C       1.271645     -2.667691     -0.201523
  C       1.456059     -1.987322      1.997880
  N      -1.058402      0.145343     -0.530067
  C      -2.333087      0.468893      0.129860
  C      -3.150058      1.519307     -0.605245
  H      -3.982770      1.823397      0.027493
  H      -3.586169      1.147081     -1.533696
  H      -2.566241      2.414041     -0.823698
  C      -3.131776     -0.809335      0.353585
  H      -2.045826      0.873869      1.101635
  H      -4.048545     -0.577060      0.893403
  H      -3.411528     -1.272847     -0.593393
  H      -2.582522     -1.537313      0.948971
  C      -0.857686      0.354029     -1.773859
  C       0.496661      0.165232     -2.243670
  H      -1.640710      0.715416     -2.434242
  C       1.586284      0.470419     -1.437706
  C       2.802154      0.135044     -2.101164
  S       0.943777     -0.490244     -3.755097
  C       2.608151     -0.378822     -3.345320
  H       1.481680      1.299564     -0.578388
  H       3.782854      0.317592     -1.686082
  H       3.355938     -0.685844     -4.061001
  H      -0.886192     -3.175505     -0.098766
  H      -0.702684     -2.360741      2.489387
  H       1.844459     -1.583373      2.921767
  O       1.541140      2.394218      0.292358
  O       0.532701      0.931167      1.646355
  C       1.008364      2.096520      1.361957
  C       0.921253      3.096881      2.479236
  H       0.975924      4.110937      2.092687
  H       1.767014      2.950907      3.154096
  H       0.014105      2.968657      3.065955
  H       3.222283     -1.928823      0.654318
  H       1.530061     -2.908394     -1.222471
39
Coordinates from ORCA-job reaction4-IEIP_ts_guess_scan_3-7_orca E -1288.396948570590
  Ir      0.580251     -0.719796      0.465086
  C       0.027684     -2.802742      0.358120
  C       0.103727     -2.352436      1.726003
  C       2.192070     -2.130072      0.780440
  C       1.294425     -2.640329     -0.231333
  C       1.469038     -1.990277      1.978286
  N      -1.051485      0.164197     -0.519596
  C      -2.327195      0.481519      0.141219
  C      -3.143302      1.537785     -0.586459
  H      -3.977171      1.836337      0.047385
  H      -3.577703      1.173139     -1.518721
  H      -2.559527      2.434554     -0.796545
  C      -3.126206     -0.798552      0.353060
  H      -2.041403      0.878457      1.116796
  H      -4.043830     -0.570818      0.893373
  H      -3.404494     -1.254166     -0.598175
  H      -2.577867     -1.531414      0.943222
  C      -0.846012      0.382305     -1.761442
  C       0.505393      0.170862     -2.232280
  H      -1.627249      0.743871     -2.423833
  C       1.606347      0.475539     -1.439188
  C       2.809071      0.075780     -2.090766
  S       0.931859     -0.534872     -3.727014
  C       2.597745     -0.474898     -3.315684
  H       1.544959      1.361806     -0.627519
  H       3.795862      0.244245     -1.684325
  H       3.334817     -0.829619     -4.020215
  H      -0.859917     -3.165787     -0.139837
  H      -0.687670     -2.387117      2.460191
  H       1.852647     -1.596646      2.908595
  O       1.396665      2.427138      0.268626
  O       0.522338      0.924499      1.663570
  C       0.945669      2.105769      1.368023
  C       0.882895      3.097551      2.494596
  H       0.876854      4.114582      2.112078
  H       1.770038      2.981576      3.120299
  H       0.015599      2.931843      3.130074
  H       3.237705     -1.900100      0.639648
  H       1.556742     -2.864521     -1.255015
39
Coordinates from ORCA-job reaction4-IEIP_ts_guess_scan_3-7_orca E -1288.396969465221
  Ir      0.585827     -0.725866      0.464354
  C       0.025255     -2.807010      0.359663
  C       0.101488     -2.355936      1.727097
  C       2.191737     -2.142335      0.783465
  C       1.293132     -2.650029     -0.228781
  C       1.467775     -1.998302      1.980254
  N      -1.047342      0.163420     -0.521372
  C      -2.321549      0.483993      0.141038
  C      -3.135970      1.542687     -0.585001
  H      -3.968330      1.842840      0.050069
  H      -3.572446      1.179725     -1.516936
  H      -2.550391      2.438242     -0.795189
  C      -3.124162     -0.793779      0.353309
  H      -2.033618      0.879956      1.116420
  H      -4.040655     -0.563367      0.894400
  H      -3.404569     -1.248389     -0.597773
  H      -2.577566     -1.528325      0.942850
  C      -0.845305      0.376646     -1.764682
  C       0.505493      0.168055     -2.234195
  H      -1.627738      0.735547     -2.427142
  C       1.601552      0.480077     -1.438792
  C       2.808205      0.086046     -2.086131
  S       0.937833     -0.550062     -3.720954
  C       2.602963     -0.469386     -3.310281
  H       1.533770      1.380494     -0.641164
  H       3.793031      0.264805     -1.679309
  H       3.343866     -0.819465     -4.013102
  H      -0.863131     -3.167190     -0.138967
  H      -0.690764     -2.387183      2.460511
  H       1.851849     -1.605147      2.910571
  O       1.343382      2.443140      0.250203
  O       0.532063      0.919925      1.663528
  C       0.925876      2.109213      1.359515
  C       0.883410      3.094632      2.492408
  H       0.850681      4.113304      2.115674
  H       1.791010      2.988751      3.089962
  H       0.038607      2.912879      3.153296
  H       3.238523     -1.916989      0.643838
  H       1.555578     -2.876426     -1.251916
39
Coordinates from ORCA-job reaction4-IEIP_ts_guess_scan_3-7_orca E -1288.396992440659
  Ir      0.585674     -0.725293      0.464786
  C       0.027011     -2.806458      0.358908
  C       0.101797     -2.356059      1.726537
  C       2.192609     -2.140146      0.784400
  C       1.295228     -2.648135     -0.228682
  C       1.467477     -1.997215      1.980730
  N      -1.046607      0.162178     -0.520403
  C      -2.320391      0.482958      0.142782
  C      -3.133643      1.543865     -0.581332
  H      -3.965348      1.844147      0.054540
  H      -3.570995      1.182992     -1.513662
  H      -2.546905      2.438938     -0.790336
  C      -3.124765     -0.794049      0.353232
  H      -2.031861      0.877127      1.118709
  H      -4.040978     -0.563146      0.894583
  H      -3.405727     -1.246937     -0.598510
  H      -2.579267     -1.530198      0.941774
  C      -0.845360      0.376165     -1.763668
  C       0.505033      0.168728     -2.235361
  H      -1.628531      0.735730     -2.424922
  C       1.602117      0.477382     -1.440043
  C       2.808174      0.082305     -2.087818
  S       0.936850     -0.535497     -3.728716
  C       2.601539     -0.470880     -3.312827
  H       1.535091      1.374667     -0.638473
  H       3.793248      0.254206     -1.678687
  H       3.341485     -0.824131     -4.015087
  H      -0.860688     -3.167083     -0.140627
  H      -0.691036     -2.388102      2.459268
  H       1.850470     -1.603964      2.911452
  O       1.352251      2.439428      0.251951
  O       0.531366      0.919439      1.663071
  C       0.930966      2.106858      1.360363
  C       0.878202      3.095842      2.489782
  H       0.846446      4.113322      2.109757
  H       1.781632      2.993318      3.094195
  H       0.028910      2.914629      3.145067
  H       3.239342     -1.913922      0.645755
  H       1.558556     -2.873821     -1.251748
39
Coordinates from ORCA-job reaction4-IEIP_ts_guess_scan_3-7_orca E -1288.397002686398
  Ir      0.584041     -0.724346      0.467517
  C       0.027942     -2.805770      0.359876
  C       0.099797     -2.356007      1.727808
  C       2.192107     -2.137239      0.789311
  C       1.297096     -2.645825     -0.225520
  C       1.464541     -1.995604      1.984437
  N      -1.046592      0.160895     -0.518974
  C      -2.320940      0.480938      0.143510
  C      -3.132738      1.543769     -0.579471
  H      -3.964692      1.843663      0.056266
  H      -3.569691      1.184911     -1.512764
  H      -2.545022      2.438663     -0.786493
  C      -3.126344     -0.795963      0.350735
  H      -2.033279      0.873181      1.120438
  H      -4.043068     -0.565481      0.891396
  H      -3.406419     -1.246975     -0.602161
  H      -2.582010     -1.533558      0.938593
  C      -0.845190      0.375302     -1.762210
  C       0.504665      0.167198     -2.235900
  H      -1.629081      0.734014     -2.423094
  C       1.603358      0.470980     -1.440401
  C       2.808544      0.079919     -2.092206
  S       0.934441     -0.531445     -3.732352
  C       2.600103     -0.464330     -3.320920
  H       1.537397      1.365641     -0.635139
  H       3.794208      0.249571     -1.683631
  H       3.338981     -0.812034     -4.027069
  H      -0.858460     -3.167095     -0.141471
  H      -0.694360     -2.389012      2.459043
  H       1.845415     -1.602156      2.915953
  O       1.362561      2.432334      0.254579
  O       0.528242      0.920162      1.664811
  C       0.932641      2.105379      1.361389
  C       0.879469      3.097579      2.488102
  H       0.853710      4.114199      2.105368
  H       1.779977      2.992754      3.096506
  H       0.026725      2.921722      3.140346
  H       3.238881     -1.909931      0.652757
  H       1.562415     -2.870815     -1.248225
39
Coordinates from ORCA-job reaction4-IEIP_ts_guess_scan_3-7_orca E -1288.397011206655
  Ir      0.584818     -0.725173      0.468741
  C       0.027737     -2.806328      0.361248
  C       0.098379     -2.356351      1.729142
  C       2.191900     -2.138866      0.792768
  C       1.297627     -2.647272     -0.222864
  C       1.463011     -1.996462      1.987037
  N      -1.045964      0.160212     -0.518843
  C      -2.320652      0.479056      0.143762
  C      -3.131385      1.544621     -0.576486
  H      -3.963307      1.843366      0.059840
  H      -3.568374      1.188853     -1.510936
  H      -2.542830      2.439587     -0.780764
  C      -3.126917     -0.798009      0.346531
  H      -2.033552      0.868227      1.122061
  H      -4.043917     -0.568642      0.887196
  H      -3.406499     -1.245989     -0.607937
  H      -2.583421     -1.537728      0.932521
  C      -0.845525      0.374740     -1.762329
  C       0.503788      0.168042     -2.237228
  H      -1.630423      0.732305     -2.422629
  C       1.602155      0.469650     -1.440548
  C       2.807629      0.080069     -2.092338
  S       0.934261     -0.526504     -3.735241
  C       2.599617     -0.461202     -3.322550
  H       1.535601      1.365501     -0.636018
  H       3.793091      0.248322     -1.682737
  H       3.338748     -0.807313     -4.029211
  H      -0.858282     -3.167321     -0.141039
  H      -0.696613     -2.388667      2.459499
  H       1.843096     -1.602898      2.918832
  O       1.359076      2.433439      0.251872
  O       0.530744      0.921073      1.665622
  C       0.932440      2.106559      1.360102
  C       0.881604      3.099703      2.486065
  H       0.852467      4.115927      2.102547
  H       1.784663      2.997126      3.091066
  H       0.031716      2.922765      3.141733
  H       3.239025     -1.912445      0.657468
  H       1.563841     -2.872781     -1.245218
39
Coordinates from ORCA-job reaction4-IEIP_ts_guess_scan_3-7_orca E -1288.397023208568
  Ir      0.586031     -0.726439      0.471969
  C       0.028945     -2.807308      0.362689
  C       0.095070     -2.357707      1.730867
  C       2.191949     -2.140302      0.801481
  C       1.300851     -2.648424     -0.217158
  C       1.458818     -1.997812      1.993224
  N      -1.043945      0.158163     -0.517582
  C      -2.318867      0.475571      0.145647
  C      -3.126101      1.548255     -0.568117
  H      -3.957259      1.845603      0.069877
  H      -3.564062      1.199960     -1.504898
  H      -2.534454      2.442456     -0.766582
  C      -3.128369     -0.800993      0.338464
  H      -2.032336      0.857396      1.126995
  H      -4.045628     -0.573302      0.879414
  H      -3.407520     -1.241764     -0.619474
  H      -2.587333     -1.546056      0.919951
  C      -0.845934      0.372012     -1.761726
  C       0.501957      0.167848     -2.239711
  H      -1.633171      0.727123     -2.420569
  C       1.600426      0.464452     -1.441337
  C       2.805931      0.079170     -2.094778
  S       0.932658     -0.517789     -3.741483
  C       2.597741     -0.454914     -3.328354
  H       1.533145      1.362264     -0.637553
  H       3.791375      0.244827     -1.684137
  H       3.336792     -0.796623     -4.037241
  H      -0.855296     -3.168145     -0.142839
  H      -0.702511     -2.389689      2.458406
  H       1.835815     -1.604225      2.926274
  O       1.353934      2.432734      0.246742
  O       0.534018      0.921562      1.667043
  C       0.932369      2.106870      1.357494
  C       0.882284      3.103394      2.480421
  H       0.846289      4.118233      2.093856
  H       1.789043      3.007096      3.080901
  H       0.036708      2.924346      3.141052
  H       3.239750     -1.914702      0.670178
  H       1.570260     -2.873952     -1.238664
39
Coordinates from ORCA-job reaction4-IEIP_ts_guess_scan_3-7_orca E -1288.397026509553
  Ir      0.586040     -0.726142      0.473889
  C       0.030723     -2.807412      0.363098
  C       0.093209     -2.357884      1.731485
  C       2.192277     -2.138807      0.807233
  C       1.303912     -2.647491     -0.213562
  C       1.456043     -1.997000      1.997172
  N      -1.043623      0.156848     -0.516691
  C      -2.318974      0.472637      0.146700
  C      -3.123876      1.549963     -0.562766
  H      -3.954794      1.846125      0.076100
  H      -3.562065      1.206658     -1.501264
  H      -2.530220      2.443726     -0.757066
  C      -3.130150     -0.803983      0.332155
  H      -2.033291      0.849273      1.130279
  H      -4.047782     -0.578125      0.873261
  H      -3.408648     -1.239615     -0.628320
  H      -2.590449     -1.552606      0.910305
  C      -0.846826      0.370628     -1.761119
  C       0.500392      0.168139     -2.240883
  H      -1.635433      0.724380     -2.419077
  C       1.599410      0.461531     -1.441958
  C       2.804479      0.077382     -2.096417
  S       0.930716     -0.511083     -3.745605
  C       2.595572     -0.452737     -3.331713
  H       1.532649      1.359333     -0.637463
  H       3.790132      0.240346     -1.685225
  H       3.334183     -0.793215     -4.041659
  H      -0.851899     -3.169000     -0.144709
  H      -0.706199     -2.390330      2.456994
  H       1.830474     -1.603170      2.931158
  O       1.354973      2.431654      0.244896
  O       0.534203      0.923045      1.667423
  C       0.932009      2.107920      1.355816
  C       0.884638      3.105786      2.477645
  H       0.847827      4.120132      2.089870
  H       1.792898      3.010250      3.075993
  H       0.040660      2.927555      3.140502
  H       3.240339     -1.912826      0.678736
  H       1.575841     -2.872692     -1.234474
39
Coordinates from ORCA-job reaction4-IEIP_ts_guess_scan_3-7_orca E -1288.397028967013
  Ir      0.586139     -0.725963      0.474830
  C       0.031977     -2.807660      0.363082
  C       0.092203     -2.357991      1.731575
  C       2.192590     -2.137904      0.810560
  C       1.305924     -2.647031     -0.211526
  C       1.454483     -1.996564      1.999388
  N      -1.043555      0.156277     -0.515858
  C      -2.319141      0.471014      0.147679
  C      -3.122339      1.551511     -0.558902
  H      -3.953116      1.846964      0.080476
  H      -3.560601      1.211546     -1.498569
  H      -2.527211      2.444892     -0.750381
  C      -3.131418     -0.805664      0.328067
  H      -2.034000      0.844009      1.132782
  H      -4.049202     -0.581217      0.869511
  H      -3.409647     -1.237631     -0.634139
  H      -2.592418     -1.556769      0.903661
  C      -0.847376      0.370007     -1.760438
  C       0.499525      0.167923     -2.241002
  H      -1.636638      0.723173     -2.417950
  C       1.599182      0.459899     -1.442312
  C       2.803684      0.076241     -2.097946
  S       0.928873     -0.510236     -3.746542
  C       2.593899     -0.451905     -3.333987
  H       1.533360      1.357533     -0.637392
  H       3.789682      0.238654     -1.687364
  H       3.332017     -0.791352     -4.044943
  H      -0.849608     -3.169882     -0.146065
  H      -0.708319     -2.390773      2.455844
  H       1.827308     -1.602604      2.933962
  O       1.358170      2.430665      0.244479
  O       0.534450      0.924030      1.667315
  C       0.934190      2.108192      1.355340
  C       0.884963      3.107414      2.475871
  H       0.847557      4.121225      2.086734
  H       1.792912      3.013526      3.074943
  H       0.040650      2.929259      3.138306
  H       3.240790     -1.911632      0.683731
  H       1.579432     -2.871988     -1.232076
