39
Generated by autodE on: 2023-08-14. E = -1288.399684 Ha
Ir    0.63428  -0.71289   0.41396
C     0.14287  -2.82897   0.30967
C     0.02849  -2.37797   1.67138
C     2.21733  -2.07719   0.99309
C     1.47593  -2.64295  -0.10690
C     1.32156  -1.94564   2.08056
N    -1.04897   0.13741  -0.51804
C    -2.30645   0.40546   0.19622
C    -3.08167   1.59112  -0.35904
H    -3.89889   1.82772   0.32089
H    -3.53496   1.38434  -1.32941
H    -2.45868   2.48174  -0.44382
C    -3.15368  -0.86203   0.21779
H    -2.00331   0.64100   1.21709
H    -4.04473  -0.69923   0.82244
H    -3.47760  -1.13765  -0.78662
H    -2.61489  -1.70507   0.64787
C    -0.90278   0.39912  -1.76290
C     0.42404   0.19288  -2.27589
H    -1.70939   0.78832  -2.37627
C     1.48731   0.18961  -1.36732
C     2.70458  -0.12370  -2.05081
S     0.88963  -0.17501  -3.86165
C     2.53037  -0.34193  -3.38076
H     1.52826   1.18175  -0.67131
H     3.67524  -0.12988  -1.57657
H     3.28265  -0.56851  -4.12094
H    -0.65509  -3.23788  -0.29313
H    -0.85061  -2.42749   2.29597
H     1.56251  -1.51692   3.04306
O     1.44934   2.42515   0.13806
O     0.56125   0.97519   1.57645
C     0.98608   2.14060   1.24604
C     0.91970   3.17913   2.33041
H     0.87533   4.17871   1.90652
H     1.82573   3.11492   2.93592
H     0.07258   3.01486   2.99242
H     3.27256  -1.85181   1.00749
H     1.87345  -2.88708  -1.08118
