39
Generated by autodE on: 2023-08-13. E = -1288.399696 Ha
Ir    0.59747  -0.71606   0.43184
C     0.04093  -2.79954   0.33019
C     0.13325  -2.34591   1.69676
C     2.21040  -2.12927   0.72760
C     1.30129  -2.64159  -0.27286
C     1.50188  -1.98659   1.93353
N    -1.04521   0.18294  -0.52714
C    -2.30992   0.52124   0.14260
C    -3.13458   1.55723  -0.60334
H    -3.96352   1.86916   0.03045
H    -3.57594   1.16792  -1.52237
H    -2.55554   2.45051  -0.83995
C    -3.10663  -0.75158   0.40128
H    -2.00822   0.94411   1.10230
H    -4.01466  -0.50732   0.95038
H    -3.40175  -1.23163  -0.53273
H    -2.55002  -1.46944   1.00200
C    -0.84014   0.39155  -1.76858
C     0.51294   0.14844  -2.22677
H    -1.61122   0.76354  -2.43697
C     1.61664   0.50578  -1.45929
C     2.82069   0.06822  -2.08569
S     0.93764  -0.66333  -3.66556
C     2.60685  -0.56827  -3.26648
H     1.54556   1.38146  -0.70121
H     3.80682   0.26951  -1.69317
H     3.34206  -0.97062  -3.94686
H    -0.85300  -3.16233  -0.15649
H    -0.64986  -2.37641   2.44005
H     1.89604  -1.59017   2.85824
O     1.27620   2.48672   0.27647
O     0.53566   0.89962   1.65908
C     0.88631   2.11388   1.37688
C     0.81003   3.06294   2.54134
H     0.75705   4.09126   2.19428
H     1.71320   2.96016   3.14596
H    -0.03685   2.84404   3.18857
H     3.25471  -1.90096   0.57469
H     1.55278  -2.87002  -1.29830
