39
Coordinates from ORCA-job reaction4-IEIP_ts_guess_scan_14-12_orca E -1288.402281868734
  Ir      0.616570     -0.738506      0.388042
  C       0.179765     -2.855096      0.313074
  C      -0.114702     -2.428976      1.659276
  C       2.129421     -2.040739      1.247919
  C       1.563098     -2.651089      0.083438
  C       1.081204     -1.942945      2.217934
  N      -1.086785      0.104329     -0.509982
  C      -2.355649      0.270716      0.213673
  C      -3.145737      1.501442     -0.207683
  H      -3.976135      1.639990      0.482809
  H      -3.580956      1.407518     -1.203530
  H      -2.537579      2.405701     -0.174733
  C      -3.184774     -1.001233      0.074508
  H      -2.071929      0.393948      1.260065
  H      -4.083450     -0.929387      0.685917
  H      -3.495799     -1.155235     -0.959549
  H      -2.636003     -1.884597      0.397285
  C      -0.944806      0.493902     -1.718901
  C       0.368671      0.318260     -2.241739
  H      -1.751881      0.946589     -2.285398
  C       1.366675     -0.030059     -1.325272
  C       2.597721     -0.234326     -2.028131
  S       0.910204      0.417788     -3.846739
  C       2.493003     -0.022156     -3.370100
  H       1.624879      1.182290     -0.695545
  H       3.535663     -0.473632     -1.547803
  H       3.276961     -0.083826     -4.109691
  H      -0.511272     -3.314992     -0.378036
  H      -1.068370     -2.493777      2.160132
  H       1.179109     -1.498420      3.198162
  O       1.755509      2.305052      0.002626
  O       0.622109      1.055817      1.442087
  C       1.181255      2.132151      1.101971
  C       1.183037      3.263760      2.085209
  H       1.064344      4.217502      1.576160
  H       2.148346      3.287269      2.594007
  H       0.406433      3.139383      2.834296
  H       3.169625     -1.804537      1.410186
  H       2.091594     -2.900688     -0.825203
39
Coordinates from ORCA-job reaction4-IEIP_ts_guess_scan_14-12_orca E -1288.402509811265
  Ir      0.616200     -0.739258      0.385540
  C       0.179046     -2.858189      0.314460
  C      -0.112977     -2.433790      1.661746
  C       2.129271     -2.043621      1.246919
  C       1.561896     -2.654791      0.083426
  C       1.082201     -1.947074      2.217963
  N      -1.089225      0.102556     -0.508297
  C      -2.357334      0.270432      0.216435
  C      -3.145505      1.502331     -0.205002
  H      -3.975913      1.642103      0.485216
  H      -3.580461      1.409086     -1.201048
  H      -2.536067      2.405741     -0.171871
  C      -3.188585     -1.000130      0.077590
  H      -2.073153      0.393281      1.262793
  H      -4.086993     -0.926877      0.689229
  H      -3.500224     -1.153651     -0.956368
  H      -2.641194     -1.884394      0.400201
  C      -0.944300      0.493031     -1.721970
  C       0.372277      0.319403     -2.247059
  H      -1.750868      0.946792     -2.288243
  C       1.366977     -0.033817     -1.328720
  C       2.599851     -0.237033     -2.030082
  S       0.918032      0.425120     -3.850569
  C       2.498867     -0.019553     -3.371508
  H       1.630615      1.189525     -0.699111
  H       3.536653     -0.478271     -1.548320
  H       3.284737     -0.079855     -4.109093
  H      -0.512673     -3.318836     -0.375494
  H      -1.065566     -2.499761      2.164395
  H       1.181228     -1.503202      3.198366
  O       1.758249      2.312249     -0.000325
  O       0.620677      1.057621      1.441291
  C       1.180911      2.135592      1.100690
  C       1.179102      3.266977      2.083820
  H       1.060032      4.220625      1.574617
  H       2.143296      3.291785      2.594649
  H       0.401042      3.141233      2.831085
  H       3.169750     -1.808199      1.408687
  H       2.089499     -2.905989     -0.825298
39
Coordinates from ORCA-job reaction4-IEIP_ts_guess_scan_14-12_orca E -1288.402610519235
  Ir      0.615565     -0.739492      0.384339
  C       0.175362     -2.859275      0.319562
  C      -0.113537     -2.436272      1.667796
  C       2.127205     -2.046560      1.248498
  C       1.558066     -2.658224      0.086557
  C       1.081592     -1.950143      2.220978
  N      -1.089534      0.101906     -0.506547
  C      -2.357379      0.269071      0.217244
  C      -3.145092      1.500946     -0.205069
  H      -3.976998      1.640437      0.483445
  H      -3.577746      1.407810     -1.202118
  H      -2.535896      2.404449     -0.170537
  C      -3.188150     -1.001704      0.077886
  H      -2.073633      0.391748      1.263734
  H      -4.086992     -0.928893      0.688975
  H      -3.499047     -1.155291     -0.956258
  H      -2.640485     -1.885748      0.400840
  C      -0.943257      0.495076     -1.721517
  C       0.373565      0.323192     -2.250176
  H      -1.750490      0.949898     -2.285829
  C       1.365360     -0.039840     -1.332721
  C       2.599581     -0.239431     -2.033389
  S       0.921536      0.437872     -3.852544
  C       2.501479     -0.010007     -3.373092
  H       1.638085      1.195568     -0.704716
  H       3.535314     -0.485218     -1.551786
  H       3.288993     -0.065328     -4.109285
  H      -0.517721     -3.320030     -0.368920
  H      -1.065225     -2.501755      2.172195
  H       1.182543     -1.506484      3.201281
  O       1.762185      2.317194     -0.003533
  O       0.621341      1.058641      1.438284
  C       1.181690      2.136900      1.097895
  C       1.178289      3.267747      2.080765
  H       1.059650      4.221521      1.571665
  H       2.141707      3.292692      2.593097
  H       0.399027      3.141188      2.826555
  H       3.168206     -1.813038      1.409509
  H       2.084212     -2.911934     -0.822321
39
Coordinates from ORCA-job reaction4-IEIP_ts_guess_scan_14-12_orca E -1288.402682999621
  Ir      0.615002     -0.740216      0.383906
  C       0.170847     -2.859658      0.326308
  C      -0.115448     -2.437760      1.675331
  C       2.124393     -2.049495      1.252164
  C       1.553748     -2.661461      0.091606
  C       1.079919     -1.952611      2.226017
  N      -1.089332      0.101691     -0.506134
  C      -2.358085      0.265972      0.216242
  C      -3.147735      1.497097     -0.204867
  H      -3.981040      1.633887      0.482486
  H      -3.578558      1.404722     -1.202745
  H      -2.540308      2.401693     -0.167945
  C      -3.186851     -1.005932      0.075022
  H      -2.075488      0.387616      1.263216
  H      -4.086405     -0.935205      0.685321
  H      -3.496409     -1.159074     -0.959582
  H      -2.637954     -1.889278      0.397754
  C      -0.941845      0.499607     -1.719902
  C       0.374232      0.329993     -2.251138
  H      -1.749529      0.956820     -2.281497
  C       1.363202     -0.046721     -1.336344
  C       2.598363     -0.241860     -2.036636
  S       0.926281      0.465104     -3.850753
  C       2.502198      0.000268     -3.374420
  H       1.647798      1.200904     -0.711717
  H       3.532242     -0.497657     -1.556692
  H       3.290342     -0.052325     -4.110148
  H      -0.523555     -3.320271     -0.360952
  H      -1.066686     -2.501800      2.180745
  H       1.182735     -1.508792      3.206059
  O       1.768245      2.320652     -0.006905
  O       0.624697      1.060690      1.434133
  C       1.185216      2.138078      1.094375
  C       1.181409      3.269535      2.076092
  H       1.064002      4.223166      1.566445
  H       2.144176      3.294198      2.589688
  H       0.401046      3.143579      2.820832
  H       3.165945     -1.818200      1.412708
  H       2.078559     -2.917765     -0.817330
39
Coordinates from ORCA-job reaction4-IEIP_ts_guess_scan_14-12_orca E -1288.402746069073
  Ir      0.613941     -0.743558      0.384040
  C       0.163203     -2.860834      0.335645
  C      -0.120564     -2.439140      1.685245
  C       2.119124     -2.054892      1.258515
  C       1.546837     -2.667239      0.099513
  C       1.075570     -1.955841      2.233735
  N      -1.088545      0.101364     -0.506163
  C      -2.358758      0.261455      0.214770
  C      -3.151618      1.491308     -0.204096
  H      -3.986028      1.624057      0.482642
  H      -3.581201      1.399932     -1.202600
  H      -2.546812      2.397561     -0.164494
  C      -3.184702     -1.012060      0.071038
  H      -2.077634      0.381759      1.262381
  H      -4.085185     -0.944092      0.680255
  H      -3.492452     -1.164633     -0.964200
  H      -2.634210     -1.894472      0.393481
  C      -0.940094      0.505827     -1.716982
  C       0.374005      0.336427     -2.250656
  H      -1.748189      0.966035     -2.275545
  C       1.359983     -0.057749     -1.340225
  C       2.596756     -0.243987     -2.039640
  S       0.928981      0.488989     -3.848060
  C       2.505194      0.025466     -3.372897
  H       1.659379      1.204231     -0.723226
  H       3.528643     -0.510603     -1.561858
  H       3.296114     -0.013226     -4.106546
  H      -0.532802     -3.320867     -0.350428
  H      -1.071868     -2.499845      2.190915
  H       1.180546     -1.511147      3.213138
  O       1.775115      2.321978     -0.014460
  O       0.631837      1.062256      1.427248
  C       1.191467      2.138144      1.087202
  C       1.188951      3.271723      2.066519
  H       1.072136      4.224635      1.555449
  H       2.151873      3.296572      2.579839
  H       0.408716      3.147499      2.811729
  H       3.161415     -1.826784      1.418762
  H       2.070245     -2.927061     -0.809246
39
Coordinates from ORCA-job reaction4-IEIP_ts_guess_scan_14-12_orca E -1288.402786226387
  Ir      0.613080     -0.746142      0.384217
  C       0.160378     -2.861324      0.338956
  C      -0.124433     -2.439215      1.688325
  C       2.115898     -2.056077      1.263095
  C       1.544771     -2.669110      0.104059
  C       1.071392     -1.955997      2.237774
  N      -1.088280      0.100669     -0.506701
  C      -2.359085      0.258129      0.214195
  C      -3.153972      1.487047     -0.203303
  H      -3.988339      1.617473      0.483894
  H      -3.583852      1.396032     -1.201756
  H      -2.550728      2.394313     -0.162861
  C      -3.183192     -1.016397      0.068935
  H      -2.078511      0.377868      1.262050
  H      -4.084189     -0.949916      0.677518
  H      -3.489926     -1.168657     -0.966659
  H      -2.631909     -1.898353      0.391204
  C      -0.939739      0.510039     -1.714780
  C       0.373757      0.341592     -2.248104
  H      -1.747339      0.973626     -2.271380
  C       1.358737     -0.061842     -1.340813
  C       2.595749     -0.244023     -2.040270
  S       0.932321      0.513302     -3.842558
  C       2.504771      0.034245     -3.372133
  H       1.665509      1.205239     -0.730024
  H       3.526132     -0.519793     -1.564837
  H       3.295517     -0.002491     -4.106087
  H      -0.535191     -3.321462     -0.347514
  H      -1.076673     -2.498266      2.192415
  H       1.175857     -1.510460      3.216819
  O       1.778986      2.321703     -0.018874
  O       0.636229      1.062856      1.422252
  C       1.195390      2.138005      1.082482
  C       1.194085      3.272718      2.060974
  H       1.077700      4.225307      1.549271
  H       2.157236      3.297278      2.573878
  H       0.414171      3.149726      2.806760
  H       3.158167     -1.828511      1.424326
  H       2.068897     -2.929940     -0.804006
39
Coordinates from ORCA-job reaction4-IEIP_ts_guess_scan_14-12_orca E -1288.402808582228
  Ir      0.612375     -0.748816      0.384372
  C       0.159796     -2.862646      0.339491
  C      -0.127590     -2.439283      1.688118
  C       2.113656     -2.056307      1.266761
  C       1.544911     -2.670532      0.107152
  C       1.067266     -1.955341      2.239769
  N      -1.088785      0.099897     -0.506862
  C      -2.359702      0.256007      0.214643
  C      -3.155435      1.484801     -0.201476
  H      -3.989233      1.614032      0.486659
  H      -3.586278      1.394417     -1.199583
  H      -2.552778      2.392445     -0.160707
  C      -3.183227     -1.018706      0.067946
  H      -2.079053      0.375041      1.262551
  H      -4.084465     -0.952856      0.676251
  H      -3.489557     -1.170144     -0.967879
  H      -2.632054     -1.900903      0.389613
  C      -0.940102      0.512499     -1.713341
  C       0.373601      0.343671     -2.245640
  H      -1.746759      0.978364     -2.269369
  C       1.358587     -0.063200     -1.339896
  C       2.595604     -0.243037     -2.039606
  S       0.933299      0.522469     -3.839070
  C       2.505077      0.040778     -3.370596
  H       1.667945      1.204511     -0.734928
  H       3.525526     -0.522265     -1.565319
  H       3.295978      0.006938     -4.104521
  H      -0.534378     -3.323572     -0.347869
  H      -1.081023     -2.497546      2.190042
  H       1.169936     -1.508964      3.218595
  O       1.780878      2.320756     -0.023348
  O       0.639596      1.062704      1.418425
  C       1.198482      2.137690      1.078203
  C       1.198271      3.272912      2.056453
  H       1.081425      4.225253      1.544414
  H       2.161972      3.297466      2.568304
  H       0.419209      3.150491      2.803236
  H       3.155576     -1.828165      1.429546
  H       2.070823     -2.931667     -0.799798
39
Coordinates from ORCA-job reaction4-IEIP_ts_guess_scan_14-12_orca E -1288.402826275532
  Ir      0.611582     -0.751644      0.384347
  C       0.160395     -2.864823      0.339383
  C      -0.131075     -2.439862      1.686886
  C       2.111136     -2.055924      1.271626
  C       1.546342     -2.672171      0.111159
  C       1.061715     -1.954422      2.241771
  N      -1.089753      0.098981     -0.506420
  C      -2.360544      0.253902      0.215718
  C      -3.156672      1.482959     -0.198793
  H      -3.990042      1.611105      0.490095
  H      -3.588178      1.393626     -1.196714
  H      -2.554348      2.390790     -0.157244
  C      -3.183768     -1.020733      0.067038
  H      -2.079604      0.371811      1.263665
  H      -4.085212     -0.955605      0.675139
  H      -3.489801     -1.170718     -0.969072
  H      -2.632922     -1.903522      0.387568
  C      -0.940775      0.514989     -1.711656
  C       0.373493      0.345972     -2.243250
  H      -1.746347      0.983263     -2.267169
  C       1.358468     -0.063718     -1.338709
  C       2.595324     -0.241780     -2.039189
  S       0.933523      0.529895     -3.836041
  C       2.505171      0.047329     -3.369249
  H       1.670277      1.204371     -0.741104
  H       3.525088     -0.523303     -1.565954
  H       3.296228      0.016475     -4.103133
  H      -0.531327     -3.327494     -0.349260
  H      -1.086076     -2.497944      2.185854
  H       1.161260     -1.507163      3.220491
  O       1.783146      2.320339     -0.029080
  O       0.643014      1.062510      1.413837
  C       1.201923      2.137460      1.072905
  C       1.202839      3.272526      2.051456
  H       1.085330      4.224850      1.539524
  H       2.167181      3.296903      2.562095
  H       0.424732      3.150170      2.799234
  H       3.152403     -1.826543      1.436937
  H       2.075246     -2.933668     -0.793950
39
Coordinates from ORCA-job reaction4-IEIP_ts_guess_scan_14-12_orca E -1288.402835353017
  Ir      0.611221     -0.752870      0.384173
  C       0.161892     -2.866455      0.339068
  C      -0.133112     -2.440662      1.685704
  C       2.109604     -2.054989      1.275622
  C       1.548351     -2.672949      0.114435
  C       1.057553     -1.953756      2.243225
  N      -1.090558      0.098620     -0.505795
  C      -2.361299      0.252689      0.216471
  C      -3.157478      1.482185     -0.196628
  H      -3.990938      1.609424      0.492331
  H      -3.588823      1.394030     -1.194718
  H      -2.555288      2.390045     -0.153825
  C      -3.184424     -1.021785      0.065938
  H      -2.080248      0.369342      1.264531
  H      -4.085931     -0.957537      0.674055
  H      -3.490391     -1.170187     -0.970413
  H      -2.633679     -1.905130      0.385084
  C      -0.941361      0.516492     -1.710546
  C       0.373228      0.347687     -2.242334
  H      -1.746460      0.985985     -2.265676
  C       1.358140     -0.063487     -1.338286
  C       2.594733     -0.241284     -2.039691
  S       0.932777      0.533342     -3.834992
  C       2.504531      0.050158     -3.369226
  H       1.671785      1.205431     -0.745451
  H       3.524599     -0.523517     -1.567058
  H       3.295510      0.020376     -4.103232
  H      -0.527552     -3.330914     -0.350633
  H      -1.089282     -2.499255      2.182379
  H       1.154239     -1.506048      3.222019
  O       1.785183      2.320824     -0.032611
  O       0.644953      1.062786      1.410887
  C       1.204349      2.137595      1.069657
  C       1.206016      3.272058      2.048831
  H       1.088352      4.224658      1.537421
  H       2.170683      3.295972      2.558882
  H       0.428326      3.149442      2.796981
  H       3.150254     -1.824442      1.443211
  H       2.079914     -2.934682     -0.789051
39
Coordinates from ORCA-job reaction4-IEIP_ts_guess_scan_14-12_orca E -1288.402842678387
  Ir      0.610989     -0.753294      0.383823
  C       0.164855     -2.867994      0.338257
  C      -0.135112     -2.441816      1.683830
  C       2.108063     -2.052823      1.280921
  C       1.551845     -2.672851      0.118617
  C       1.052413     -1.952792      2.245039
  N      -1.091467      0.098504     -0.505015
  C      -2.362225      0.251478      0.217173
  C      -3.158255      1.481737     -0.193888
  H      -3.992128      1.607709      0.494800
  H      -3.588930      1.395454     -1.192423
  H      -2.556093      2.389513     -0.148960
  C      -3.185319     -1.022725      0.064040
  H      -2.081183      0.366155      1.265463
  H      -4.086696     -0.959979      0.672509
  H      -3.491530     -1.168666     -0.972590
  H      -2.634413     -1.906830      0.380820
  C      -0.942264      0.517725     -1.709500
  C       0.372438      0.349452     -2.242135
  H      -1.747262      0.987968     -2.264138
  C       1.357356     -0.062779     -1.338421
  C       2.593466     -0.241305     -2.041142
  S       0.930777      0.535242     -3.834960
  C       2.502803      0.051110     -3.370299
  H       1.673067      1.207652     -0.750072
  H       3.523595     -0.523682     -1.569076
  H       3.293419      0.021324     -4.104687
  H      -0.521304     -3.334930     -0.353011
  H      -1.092809     -2.501642      2.177422
  H       1.144997     -1.504744      3.224070
  O       1.787963      2.321814     -0.035548
  O       0.646518      1.063590      1.407955
  C       1.207090      2.137974      1.066848
  C       1.209905      3.271406      2.047103
  H       1.092717      4.224634      1.536718
  H       2.174796      3.294187      2.556798
  H       0.432379      3.148493      2.795351
  H       3.147798     -1.820541      1.451747
  H       2.087108     -2.934539     -0.782698
39
Coordinates from ORCA-job reaction4-IEIP_ts_guess_scan_14-12_orca E -1288.402846541376
  Ir      0.610902     -0.752820      0.383468
  C       0.168724     -2.868758      0.336963
  C      -0.136595     -2.442968      1.681565
  C       2.106931     -2.049659      1.286335
  C       1.556172     -2.671412      0.122616
  C       1.047550     -1.951671      2.246872
  N      -1.092267      0.098494     -0.504509
  C      -2.363109      0.250371      0.217578
  C      -3.158684      1.481705     -0.191044
  H      -3.993018      1.606352      0.497315
  H      -3.588625      1.397772     -1.190091
  H      -2.556285      2.389193     -0.143647
  C      -3.186409     -1.023385      0.061532
  H      -2.082210      0.362640      1.266174
  H      -4.087395     -0.962392      0.670748
  H      -3.493285     -1.166346     -0.975323
  H      -2.635191     -1.908390      0.375283
  C      -0.943440      0.518076     -1.708957
  C       0.371094      0.350375     -2.242659
  H      -1.748781      0.988288     -2.263159
  C       1.356212     -0.062068     -1.339139
  C       2.591771     -0.241879     -2.043025
  S       0.927987      0.534815     -3.835900
  C       2.500356      0.049858     -3.372119
  H       1.673360      1.209996     -0.753503
  H       3.522203     -0.523946     -1.571340
  H       3.290424      0.019163     -4.107053
  H      -0.513874     -3.338084     -0.356184
  H      -1.095909     -2.504414      2.171823
  H       1.135687     -1.503474      3.226242
  O       1.790671      2.322573     -0.036905
  O       0.647200      1.064741      1.405969
  C       1.209454      2.138407      1.065416
  C       1.213862      3.270894      2.046719
  H       1.097848      4.224848      1.537406
  H       2.178847      3.292019      2.556321
  H       0.436236      3.148105      2.794874
  H       3.145636     -1.815378      1.460646
  H       2.095322     -2.932455     -0.776570
39
Coordinates from ORCA-job reaction4-IEIP_ts_guess_scan_14-12_orca E -1288.402849216606
  Ir      0.610791     -0.751584      0.383062
  C       0.174879     -2.868977      0.334570
  C      -0.138346     -2.444556      1.677913
  C       2.105622     -2.044289      1.294070
  C       1.562963     -2.667971      0.127963
  C       1.040889     -1.949980      2.249510
  N      -1.093325      0.098222     -0.504211
  C      -2.364261      0.248659      0.217948
  C      -3.158707      1.481992     -0.186685
  H      -3.993460      1.604879      0.501471
  H      -3.587973      1.401968     -1.186342
  H      -2.555511      2.388741     -0.135681
  C      -3.188291     -1.024125      0.057449
  H      -2.083587      0.357060      1.267006
  H      -4.088407     -0.965666      0.668178
  H      -3.496646     -1.162293     -0.979629
  H      -2.636679     -1.910665      0.366216
  C      -0.945478      0.517401     -1.708818
  C       0.368640      0.350406     -2.243881
  H      -1.751645      0.986865     -2.262520
  C       1.354282     -0.061509     -1.340602
  C       2.589125     -0.243011     -2.045703
  S       0.923672      0.532277     -3.837837
  C       2.496537      0.046746     -3.374980
  H       1.672418      1.212676     -0.757098
  H       3.519962     -0.524385     -1.574379
  H       3.285792      0.014533     -4.110718
  H      -0.502472     -3.341340     -0.361628
  H      -1.100096     -2.508485      2.163082
  H       1.122463     -1.501766      3.229432
  O       1.794101      2.322916     -0.037610
  O       0.647281      1.066588      1.404097
  C       1.212329      2.138944      1.064522
  C       1.219643      3.270457      2.046964
  H       1.105907      4.225336      1.538876
  H       2.184721      3.288787      2.556513
  H       0.441769      3.148580      2.795012
  H       3.142746     -1.806918      1.473533
  H       2.107723     -2.927323     -0.768328
39
Coordinates from ORCA-job reaction4-IEIP_ts_guess_scan_14-12_orca E -1288.402850832145
  Ir      0.610575     -0.750038      0.382781
  C       0.182482     -2.868575      0.331336
  C      -0.140244     -2.446433      1.673297
  C       2.104201     -2.037459      1.303298
  C       1.571354     -2.662883      0.134025
  C       1.033164     -1.948034      2.252722
  N      -1.094588      0.097255     -0.504234
  C      -2.365531      0.246233      0.218357
  C      -3.157950      1.482570     -0.180923
  H      -3.992776      1.603680      0.507462
  H      -3.587033      1.407857     -1.181070
  H      -2.553161      2.387987     -0.125666
  C      -3.191086     -1.024868      0.052165
  H      -2.085051      0.349554      1.267952
  H      -4.089908     -0.969235      0.665048
  H      -3.501677     -1.156736     -0.985073
  H      -2.639364     -1.913629      0.354407
  C      -0.948276      0.515305     -1.709224
  C       0.365340      0.348978     -2.245473
  H      -1.755603      0.983347     -2.262507
  C       1.351826     -0.061738     -1.342556
  C       2.586045     -0.244283     -2.048501
  S       0.918738      0.528327     -3.840229
  C       2.492152      0.043100     -3.378128
  H       1.669866      1.214607     -0.760356
  H       3.517325     -0.524739     -1.577499
  H       3.280589      0.009684     -4.114689
  H      -0.488579     -3.344028     -0.368815
  H      -1.105012     -2.513258      2.152079
  H       1.106876     -1.500006      3.233334
  O       1.797456      2.322366     -0.038073
  O       0.646728      1.068839      1.402571
  C       1.215254      2.139432      1.063967
  C       1.226671      3.270327      2.047159
  H       1.115924      4.226009      1.539947
  H       2.191933      3.285147      2.556485
  H       0.448614      3.150356      2.795340
  H       3.139353     -1.796294      1.489006
  H       2.122742     -2.919534     -0.758984
39
Coordinates from ORCA-job reaction4-IEIP_ts_guess_scan_14-12_orca E -1288.402852302286
  Ir      0.610261     -0.748884      0.382767
  C       0.189469     -2.867869      0.328162
  C      -0.142013     -2.448197      1.668915
  C       2.102853     -2.031188      1.311937
  C       1.579137     -2.657770      0.139499
  C       1.026061     -1.946433      2.255787
  N      -1.095820      0.095511     -0.504423
  C      -2.366631      0.243451      0.218900
  C      -3.156379      1.483271     -0.174797
  H      -3.990814      1.603160      0.514302
  H      -3.585933      1.414175     -1.175148
  H      -2.549398      2.386949     -0.115643
  C      -3.194353     -1.025465      0.046949
  H      -2.086212      0.341563      1.268964
  H      -4.091837     -0.972134      0.661999
  H      -3.507315     -1.150887     -0.990376
  H      -2.643105     -1.916759      0.342684
  C      -0.951164      0.512103     -1.709978
  C       0.362118      0.346261     -2.246814
  H      -1.759615      0.978436     -2.263094
  C       1.349578     -0.063029     -1.344373
  C       2.583541     -0.245015     -2.050530
  S       0.914727      0.524721     -3.842140
  C       2.488614      0.040955     -3.380458
  H       1.666257      1.214913     -0.762763
  H       3.515237     -0.524561     -1.579822
  H       3.276558      0.007573     -4.117551
  H      -0.475815     -3.345665     -0.375882
  H      -1.109684     -2.517462      2.141503
  H       1.092580     -1.498815      3.237078
  O       1.799684      2.321021     -0.039007
  O       0.645910      1.070887      1.401502
  C       1.217543      2.139766      1.063262
  C       1.233260      3.270628      2.046492
  H       1.125190      4.226673      1.539423
  H       2.198858      3.282283      2.555262
  H       0.455327      3.153093      2.795209
  H       3.136126     -1.786560      1.503520
  H       2.136569     -2.911511     -0.750578
39
Coordinates from ORCA-job reaction4-IEIP_ts_guess_scan_14-12_orca E -1288.402854674944
  Ir      0.610030     -0.748685      0.382980
  C       0.192945     -2.867530      0.326539
  C      -0.143152     -2.449181      1.666655
  C       2.101993     -2.028257      1.316800
  C       1.583136     -2.655246      0.142565
  C       1.022126     -1.945807      2.257580
  N      -1.096552      0.093841     -0.504430
  C      -2.367195      0.241452      0.219457
  C      -3.154838      1.483732     -0.170750
  H      -3.988751      1.603328      0.519060
  H      -3.585033      1.418234     -1.171068
  H      -2.546100      2.386068     -0.109442
  C      -3.196687     -1.025768      0.043896
  H      -2.086728      0.336316      1.269769
  H      -4.093482     -0.973385      0.660048
  H      -3.510948     -1.147231     -0.993502
  H      -2.646277     -1.918848      0.335892
  C      -0.952860      0.509484     -1.710457
  C       0.360398      0.343878     -2.247254
  H      -1.761894      0.974660     -2.263689
  C       1.348513     -0.064650     -1.345239
  C       2.582630     -0.244802     -2.051172
  S       0.913152      0.523665     -3.842666
  C       2.487289      0.041613     -3.381111
  H       1.663562      1.213967     -0.764054
  H       3.514608     -0.523824     -1.580730
  H       3.275244      0.009482     -4.118258
  H      -0.469326     -3.346250     -0.379705
  H      -1.112471     -2.519434      2.135740
  H       1.084934     -1.498626      3.239299
  O       1.800114      2.319886     -0.040591
  O       0.645588      1.071904      1.400885
  C       1.218548      2.139906      1.062175
  C       1.236834      3.271107      2.044959
  H       1.129820      4.227048      1.537489
  H       2.202830      3.281336      2.552999
  H       0.459343      3.155188      2.794396
  H       3.134270     -1.781968      1.511629
  H       2.143759     -2.907413     -0.745951
39
Coordinates from ORCA-job reaction4-IEIP_ts_guess_scan_14-12_orca E -1288.402857162863
  Ir      0.609994     -0.748948      0.383200
  C       0.193710     -2.867634      0.326199
  C      -0.143729     -2.449490      1.666087
  C       2.101608     -2.027899      1.318478
  C       1.584136     -2.654959      0.143699
  C       1.020768     -1.945803      2.258225
  N      -1.096767      0.092932     -0.504207
  C      -2.367324      0.240552      0.219868
  C      -3.153919      1.483943     -0.168981
  H      -3.987543      1.603673      0.521169
  H      -3.584432      1.419902     -1.169254
  H      -2.544301      2.385628     -0.106900
  C      -3.197695     -1.025844      0.042809
  H      -2.086817      0.334106      1.270272
  H      -4.094402     -0.973586      0.659114
  H      -3.512202     -1.145810     -0.994686
  H      -2.647937     -1.919734      0.333613
  C      -0.953377      0.508187     -1.710504
  C       0.359963      0.342704     -2.247149
  H      -1.762568      0.972831     -2.263935
  C       1.348353     -0.065654     -1.345365
  C       2.582694     -0.244218     -2.051129
  S       0.913014      0.524196     -3.842429
  C       2.487267      0.043224     -3.380925
  H       1.662360      1.213154     -0.764701
  H       3.514842     -0.523011     -1.580899
  H       3.275409      0.012273     -4.117927
  H      -0.467727     -3.346478     -0.380738
  H      -1.113608     -2.519773      2.134029
  H       1.082590     -1.498941      3.240146
  O       1.799629      2.319553     -0.042108
  O       0.645835      1.072122      1.400532
  C       1.218746      2.139996      1.061127
  C       1.237837      3.271443      2.043574
  H       1.130658      4.227199      1.535789
  H       2.204151      3.281580      2.551008
  H       0.460817      3.155973      2.793567
  H       3.133623     -1.781349      1.514360
  H       2.145714     -2.906853     -0.744290
