! Opt PBEh-3c
%geom Constraints
{ B 0 20 2.4714285714285715 C }
{ B 24 30 1.3857142857142857 C }
    end
end
%output 
xyzfile=True 
end 
%scf 
maxiter 250 
end
%output
Print[P_Hirshfeld] = 1
end
% maxcore
4000
*xyz 1 1
Ir   0.58008046  -0.72924035   0.48062113 
C    0.02414241  -2.80850477   0.35954715 
C    0.09766090  -2.36346869   1.72972035 
C    2.18914714  -2.14343827   0.79166462 
C    1.29262832  -2.64588671  -0.22537157 
C    1.46401069  -2.00768446   1.98828421 
N   -1.04277046   0.16041493  -0.51396546 
C   -2.31869882   0.48423349   0.14448774 
C   -3.12633491   1.54740794  -0.58271667 
H   -3.95824316   1.85144702   0.05111022 
H   -3.56314159   1.18750858  -1.51565929 
H   -2.53546106   2.43981355  -0.79138839 
C   -3.12673267  -0.79087617   0.35196455 
H   -2.03336516   0.87812891   1.12144481 
H   -4.04518587  -0.55771220   0.88853612 
H   -3.40389503  -1.24398824  -0.60080067 
H   -2.58599611  -1.52794833   0.94392107 
C   -0.83945020   0.36836828  -1.75796164 
C    0.51001678   0.16169307  -2.23296671 
H   -1.62464990   0.72034108  -2.42109609 
C    1.61317061   0.49601876  -1.45667015 
C    2.81595856   0.10235287  -2.10935831 
S    0.93451130  -0.56329475  -3.72008247 
C    2.60209884  -0.47166091  -3.32391952 
H    1.53553141   1.38028714  -0.64634629 
H    3.80346546   0.28977188  -1.71326807 
H    3.33835789  -0.82828755  -4.02837806 
H   -0.86297692  -3.16667476  -0.14279676 
H   -0.69634646  -2.39836177   2.46116873 
H    1.84635612  -1.61984990   2.92154205 
O    1.33888710   2.43353247   0.25476707 
O    0.53549812   0.91460097   1.67711602 
C    0.92499293   2.10403396   1.36615996 
C    0.87466632   3.09666748   2.49266235 
H    0.83301460   4.11234477   2.10884342 
H    1.78389745   3.00275473   3.08977519 
H    0.03225875   2.91245964   3.15594264 
H    3.23545931  -1.91424833   0.65418183 
H    1.55680684  -2.86386535  -1.24997497 
*
