39
Generated by autodE on: 2023-08-14. E = -1288.392417 Ha
Ir    0.57000  -0.74363   0.52453
C     0.01631  -2.82129   0.39503
C     0.04487  -2.37028   1.76454
C     2.16815  -2.15743   0.89655
C     1.30395  -2.66105  -0.14754
C     1.40256  -2.01596   2.06718
N    -1.03514   0.13598  -0.50023
C    -2.32187   0.43835   0.15076
C    -3.10743   1.54385  -0.53770
H    -3.94315   1.83120   0.09896
H    -3.53753   1.23123  -1.49037
H    -2.50140   2.43540  -0.70081
C    -3.14517  -0.83753   0.28077
H    -2.05412   0.78234   1.15124
H    -4.07175  -0.62366   0.81155
H    -3.40788  -1.24075  -0.69818
H    -2.62076  -1.60821   0.84382
C    -0.83744   0.35101  -1.74606
C     0.50397   0.17841  -2.24620
H    -1.63774   0.68957  -2.39845
C     1.61694   0.46818  -1.46906
C     2.80883   0.12432  -2.16434
S     0.90710  -0.43230  -3.79263
C     2.57765  -0.36064  -3.41608
H     1.55533   1.36562  -0.60289
H     3.80295   0.28472  -1.77284
H     3.30552  -0.66222  -4.15423
H    -0.85295  -3.18245  -0.13550
H    -0.77331  -2.40205   2.46901
H     1.75360  -1.62567   3.01170
O     1.41979   2.38637   0.23663
O     0.53888   0.93287   1.68165
C     0.96915   2.09672   1.35087
C     0.93081   3.12793   2.44058
H     0.87363   4.12944   2.02268
H     1.85416   3.06366   3.01980
H     0.10327   2.95896   3.12561
H     3.21910  -1.93172   0.79341
H     1.60049  -2.88009  -1.16302
