! Opt PBEh-3c
%geom Constraints
{ B 0 20 2.1285714285714286 C }
{ B 24 30 1.457142857142857 C }
    end
end
%output 
xyzfile=True 
end 
%scf 
maxiter 250 
end
%output
Print[P_Hirshfeld] = 1
end
% maxcore
4000
*xyz 1 1
Ir   0.63267475  -0.71565371   0.41752851 
C    0.14257583  -2.83091768   0.31181943 
C    0.01580946  -2.37992623   1.67261214 
C    2.21096177  -2.07878052   1.01400206 
C    1.47990432  -2.64536032  -0.09195495 
C    1.30443120  -1.94686544   2.09304694 
N   -1.04969241   0.13463060  -0.51599180 
C   -2.30880848   0.39631337   0.19793679 
C   -3.08520476   1.58467751  -0.35023319 
H   -3.90371098   1.81507649   0.33025995 
H   -3.53683537   1.38408468  -1.32267444 
H   -2.46371010   2.47698558  -0.42795932 
C   -3.15497907  -0.87201908   0.20886941 
H   -2.00813669   0.62570278   1.22096769 
H   -4.04785724  -0.71434810   0.81222257 
H   -3.47601000  -1.14089354  -0.79830255 
H   -2.61681236  -1.71782372   0.63417537 
C   -0.90339839   0.40421912  -1.75936959 
C    0.42220050   0.20207069  -2.27552605 
H   -1.71087195   0.79667719  -2.36951087 
C    1.48513571   0.17932074  -1.36780990 
C    2.70115514  -0.12566254  -2.05645741 
S    0.88710240  -0.13505971  -3.86877333 
C    2.52648516  -0.31699749  -3.39083426 
H    1.53640179   1.17633093  -0.66450929 
H    3.67177016  -0.14503441  -1.58248347 
H    3.27828586  -0.53177518  -4.13500183 
H   -0.64909090  -3.24127445  -0.29821354 
H   -0.86890853  -2.42904961   2.28922322 
H    1.53634392  -1.51731885   3.05741284 
O    1.47908459   2.41094191   0.13395957 
O    0.56296798   0.97938195   1.57276038 
C    1.00139043   2.13780386   1.24001043 
C    0.93523217   3.18601943   2.31458509 
H    0.88782632   4.18151754   1.88136868 
H    1.84340007   3.12990034   2.91767837 
H    0.09008190   3.02598039   2.97994715 
H    3.26610511  -1.85400365   1.03859593 
H    1.88607068  -2.88968094  -1.06263667 
*
