! Opt PBEh-3c
%geom Constraints
{ B 0 20 2.257142857142857 C }
{ B 24 30 1.457142857142857 C }
    end
end
%output 
xyzfile=True 
end 
%scf 
maxiter 250 
end
%output
Print[P_Hirshfeld] = 1
end
% maxcore
4000
*xyz 1 1
Ir   0.61508327  -0.70971426   0.42962605 
C    0.07035469  -2.80543840   0.35290807 
C    0.09601986  -2.34356918   1.71566479 
C    2.21599014  -2.11131611   0.83519181 
C    1.35723734  -2.64699291  -0.19592183 
C    1.44319890  -1.95644476   2.00349323 
N   -1.04612279   0.15635649  -0.52808632 
C   -2.31205354   0.45272530   0.16013130 
C   -3.10989680   1.57237688  -0.48957258 
H   -3.93344836   1.84595820   0.16857385 
H   -3.55751261   1.27901116  -1.44034618 
H   -2.50645640   2.46718934  -0.64429538 
C   -3.13333328  -0.82525070   0.28588035 
H   -2.01516555   0.77502479   1.15921431 
H   -4.04108679  -0.62242245   0.85224042 
H   -3.42884398  -1.20437598  -0.69323362 
H   -2.59055060  -1.60927072   0.81169358 
C   -0.87252616   0.38923700  -1.77309767 
C    0.46793515   0.17878433  -2.26055939 
H   -1.66658875   0.75980830  -2.41426477 
C    1.54800170   0.33788188  -1.39306578 
C    2.76188049  -0.03111897  -2.04633490 
S    0.92119471  -0.38859306  -3.79538297 
C    2.57393065  -0.43801357  -3.32963839 
H    1.52453885   1.27400060  -0.65258498 
H    3.73864228   0.05667579  -1.59325386 
H    3.32101807  -0.74286318  -4.04674016 
H   -0.79520932  -3.18443965  -0.17128233 
H   -0.72070362  -2.37095088   2.42138511 
H    1.78978063  -1.54121050   2.93905169 
O    1.37157643   2.45371728   0.21342489 
O    0.53557448   0.94522834   1.62484891 
C    0.93686115   2.12992207   1.31890842 
C    0.87528152   3.12740284   2.44152383 
H    0.85392142   4.14266799   2.05511232 
H    1.77014400   3.02297874   3.05812779 
H    0.01650792   2.95466836   3.08669349 
H    3.26879777  -1.89322764   0.73807761 
H    1.65539718  -2.89721278  -1.20337061 
*
