39
Coordinates from ORCA-job reaction4-IEIP_ts_guess_scan_6-13_orca E -1288.399687638439
  Ir      0.601004     -0.732934      0.481811
  C       0.077565     -2.824725      0.362496
  C      -0.004122     -2.364777      1.725161
  C       2.179788     -2.121557      1.012668
  C       1.404481     -2.657810     -0.080864
  C       1.314250     -1.972826      2.116343
  N      -1.043289      0.126537     -0.501788
  C      -2.323749      0.379266      0.181270
  C      -3.101248      1.553606     -0.395660
  H      -3.932264      1.786814      0.268601
  H      -3.536242      1.336409     -1.372080
  H      -2.486256      2.450110     -0.476705
  C      -3.159184     -0.895658      0.187423
  H      -2.051717      0.624519      1.208871
  H      -4.075457     -0.734923      0.753945
  H      -3.440744     -1.187054     -0.825350
  H      -2.631819     -1.728699      0.649591
  C      -0.874244      0.389401     -1.741693
  C       0.454655      0.219041     -2.256365
  H      -1.684216      0.754657     -2.366536
  C       1.549311      0.283417     -1.404117
  C       2.744955     -0.023596     -2.110735
  S       0.878460     -0.157042     -3.864777
  C       2.531476     -0.272478     -3.434057
  H       1.577405      1.258451     -0.567654
  H       3.731207     -0.003998     -1.670296
  H       3.266847     -0.496963     -4.191973
  H      -0.740203     -3.211538     -0.228257
  H      -0.871090     -2.402014      2.367789
  H       1.584276     -1.556862      3.076725
  O       1.537920      2.341831      0.175364
  O       0.551537      0.974278      1.619096
  C       1.025818      2.108166      1.279902
  C       0.975043      3.187240      2.320526
  H       0.922845      4.169274      1.857767
  H       1.892606      3.149608      2.910887
  H       0.139029      3.047257      3.001217
  H       3.236271     -1.901098      0.998525
  H       1.778463     -2.894140     -1.066329
39
Coordinates from ORCA-job reaction4-IEIP_ts_guess_scan_6-13_orca E -1288.399860391083
  Ir      0.603608     -0.734513      0.483334
  C       0.075966     -2.827339      0.368826
  C      -0.008142     -2.366318      1.730601
  C       2.177553     -2.125880      1.022295
  C       1.404132     -2.663473     -0.071710
  C       1.309107     -1.974187      2.123614
  N      -1.042859      0.125194     -0.503600
  C      -2.322537      0.377854      0.179740
  C      -3.100724      1.550528     -0.399470
  H      -3.932570      1.783898      0.263656
  H      -3.534439      1.331285     -1.376031
  H      -2.486572      2.447551     -0.481341
  C      -3.156520     -0.897956      0.188216
  H      -2.050001      0.624644      1.206868
  H      -4.072374     -0.737502      0.755451
  H      -3.438747     -1.190937     -0.823912
  H      -2.627591     -1.729731      0.651009
  C      -0.875830      0.390297     -1.745756
  C       0.453313      0.225952     -2.265470
  H      -1.687311      0.758485     -2.366955
  C       1.545069      0.276198     -1.409044
  C       2.741344     -0.025609     -2.117924
  S       0.877650     -0.138624     -3.876023
  C       2.530369     -0.257389     -3.444555
  H       1.577179      1.260167     -0.568376
  H       3.726994     -0.011606     -1.675893
  H       3.266926     -0.473267     -4.203706
  H      -0.740938     -3.214344     -0.223019
  H      -0.876413     -2.402212      2.371419
  H       1.577233     -1.557085      3.084021
  O       1.543580      2.343714      0.174689
  O       0.551340      0.975576      1.620953
  C       1.029257      2.108777      1.281296
  C       0.979425      3.188361      2.321144
  H       0.928370      4.170394      1.858152
  H       1.896813      3.150003      2.911705
  H       0.143026      3.049259      3.001458
  H       3.234552     -1.907915      1.010684
  H       1.780135     -2.903056     -1.055605
39
Coordinates from ORCA-job reaction4-IEIP_ts_guess_scan_6-13_orca E -1288.399977499834
  Ir      0.601933     -0.734864      0.484912
  C       0.069269     -2.828481      0.381676
  C      -0.018339     -2.363898      1.741236
  C       2.169562     -2.127302      1.037568
  C       1.399105     -2.669154     -0.055733
  C       1.296743     -1.969847      2.135447
  N      -1.041200      0.119877     -0.504299
  C      -2.321841      0.369125      0.178105
  C      -3.102283      1.541377     -0.398993
  H      -3.935608      1.771228      0.263516
  H      -3.534208      1.323312     -1.376580
  H      -2.490214      2.440096     -0.477931
  C      -3.153732     -0.908131      0.184226
  H      -2.050288      0.614035      1.205982
  H      -4.069661     -0.750534      0.752189
  H      -3.435749     -1.199493     -0.828409
  H      -2.622928     -1.739671      0.645142
  C      -0.874073      0.392824     -1.746516
  C       0.454628      0.235917     -2.273918
  H      -1.686886      0.766753     -2.362177
  C       1.545026      0.260506     -1.414770
  C       2.740754     -0.028999     -2.130752
  S       0.879089     -0.081648     -3.893472
  C       2.529602     -0.231573     -3.461838
  H       1.585580      1.257117     -0.568598
  H       3.726144     -0.031412     -1.687778
  H       3.265534     -0.435784     -4.224705
  H      -0.746382     -3.216927     -0.210920
  H      -0.888416     -2.396728      2.379599
  H       1.562061     -1.548871      3.094940
  O       1.563019      2.341259      0.174014
  O       0.547555      0.980226      1.617933
  C       1.037588      2.108355      1.279649
  C       0.990420      3.190541      2.315962
  H       0.948552      4.172057      1.850891
  H       1.904611      3.147089      2.911129
  H       0.149506      3.058176      2.991902
  H       3.227202     -1.912536      1.029200
  H       1.777695     -2.914828     -1.037089
39
Coordinates from ORCA-job reaction4-IEIP_ts_guess_scan_6-13_orca E -1288.400029957834
  Ir      0.601447     -0.738703      0.488686
  C       0.063561     -2.831525      0.396248
  C      -0.026620     -2.361904      1.753488
  C       2.163693     -2.132380      1.053767
  C       1.395098     -2.677637     -0.038746
  C       1.287534     -1.967760      2.148415
  N      -1.039964      0.115333     -0.504695
  C      -2.322665      0.361220      0.175943
  C      -3.103227      1.535600     -0.396748
  H      -3.937765      1.761615      0.265530
  H      -3.533662      1.321784     -1.375915
  H      -2.491838      2.435227     -0.470490
  C      -3.155130     -0.915817      0.175273
  H      -2.053475      0.601755      1.205493
  H      -4.072076     -0.760317      0.742214
  H      -3.435334     -1.202827     -0.839099
  H      -2.625528     -1.749340      0.633657
  C      -0.872303      0.395149     -1.745094
  C       0.454113      0.239644     -2.276843
  H      -1.686182      0.771284     -2.357848
  C       1.544687      0.243835     -1.417593
  C       2.740141     -0.029171     -2.140232
  S       0.875987     -0.053271     -3.901138
  C       2.529330     -0.192650     -3.476767
  H       1.592438      1.247745     -0.569876
  H       3.725830     -0.040287     -1.698061
  H       3.265643     -0.372755     -4.245308
  H      -0.751347     -3.220848     -0.196762
  H      -0.898360     -2.390088      2.389750
  H       1.551162     -1.542599      3.106544
  O       1.578297      2.333355      0.170799
  O       0.548553      0.982375      1.614410
  C       1.046104      2.105302      1.275218
  C       1.002485      3.192395      2.306007
  H       0.966292      4.172102      1.836682
  H       1.915391      3.147182      2.903024
  H       0.159539      3.066779      2.980663
  H       3.222047     -1.921232      1.047978
  H       1.775474     -2.929382     -1.017833
39
Coordinates from ORCA-job reaction4-IEIP_ts_guess_scan_6-13_orca E -1288.400070004267
  Ir      0.602355     -0.741299      0.490475
  C       0.063749     -2.833346      0.402910
  C      -0.028209     -2.360611      1.759008
  C       2.163568     -2.134334      1.061834
  C       1.396260     -2.681460     -0.030647
  C       1.285674     -1.966172      2.154593
  N      -1.040739      0.113715     -0.505706
  C      -2.324831      0.356009      0.174320
  C      -3.105209      1.532760     -0.393822
  H      -3.940331      1.755306      0.268835
  H      -3.534896      1.323370     -1.374300
  H      -2.494161      2.432996     -0.462921
  C      -3.157512     -0.920888      0.166155
  H      -2.057691      0.592142      1.205435
  H      -4.075684     -0.767672      0.731698
  H      -3.435509     -1.203278     -0.850131
  H      -2.629334     -1.756711      0.621922
  C      -0.873210      0.399144     -1.744159
  C       0.451684      0.245984     -2.276587
  H      -1.687695      0.776683     -2.355412
  C       1.542577      0.239497     -1.418191
  C       2.737511     -0.029930     -2.141866
  S       0.874360     -0.023901     -3.904585
  C       2.525940     -0.181181     -3.480034
  H       1.595685      1.243339     -0.570214
  H       3.722663     -0.052103     -1.699025
  H       3.261504     -0.359334     -4.249766
  H      -0.750384     -3.223570     -0.190571
  H      -0.900932     -2.386440      2.394052
  H       1.548332     -1.538521      3.111897
  O       1.587266      2.329449      0.169814
  O       0.550969      0.984446      1.611660
  C       1.051808      2.104755      1.272664
  C       1.009747      3.194892      2.300581
  H       0.975524      4.173372      1.828607
  H       1.922360      3.149688      2.898026
  H       0.166280      3.072682      2.975263
  H       3.222157     -1.924374      1.057520
  H       1.777723     -2.935909     -1.008592
39
Coordinates from ORCA-job reaction4-IEIP_ts_guess_scan_6-13_orca E -1288.400090396247
  Ir      0.599945     -0.742727      0.491545
  C       0.061793     -2.833502      0.405663
  C      -0.033906     -2.358824      1.760982
  C       2.160112     -2.134199      1.069437
  C       1.395816     -2.682529     -0.024476
  C       1.279060     -1.963978      2.159385
  N      -1.040227      0.112408     -0.504471
  C      -2.325057      0.351208      0.175599
  C      -3.106278      1.529582     -0.388341
  H      -3.941213      1.749024      0.275552
  H      -3.536359      1.323599     -1.369388
  H      -2.495958      2.430543     -0.454473
  C      -3.156638     -0.926281      0.161424
  H      -2.059246      0.583982      1.207835
  H      -4.075909     -0.775862      0.725928
  H      -3.432655     -1.205100     -0.856393
  H      -2.628762     -1.763707      0.614836
  C      -0.872204      0.402264     -1.741448
  C       0.451522      0.249714     -2.274475
  H      -1.686820      0.781198     -2.351805
  C       1.543898      0.232096     -1.418338
  C       2.737924     -0.031049     -2.144730
  S       0.873628     -0.000208     -3.906081
  C       2.524319     -0.168942     -3.484435
  H       1.603068      1.234650     -0.569576
  H       3.723211     -0.061624     -1.702875
  H       3.258614     -0.341663     -4.256651
  H      -0.750512     -3.224402     -0.189872
  H      -0.908471     -2.383003      2.393570
  H       1.539370     -1.534456      3.116505
  O       1.600511      2.321588      0.169279
  O       0.549748      0.986003      1.607244
  C       1.057324      2.102715      1.269024
  C       1.014261      3.197325      2.292744
  H       0.983924      4.173835      1.816474
  H       1.924792      3.152514      2.893339
  H       0.168241      3.080127      2.965140
  H       3.218799     -1.924689      1.068129
  H       1.779703     -2.938439     -1.001067
39
Coordinates from ORCA-job reaction4-IEIP_ts_guess_scan_6-13_orca E -1288.400099533786
  Ir      0.599347     -0.743850      0.492449
  C       0.062151     -2.834351      0.406754
  C      -0.037572     -2.358634      1.761562
  C       2.158587     -2.134270      1.076220
  C       1.397560     -2.683504     -0.019465
  C       1.274227     -1.963231      2.163374
  N      -1.040370      0.112058     -0.503925
  C      -2.325570      0.348455      0.176355
  C      -3.107367      1.527714     -0.385110
  H      -3.942211      1.745330      0.279506
  H      -3.537578      1.323667     -1.366503
  H      -2.497479      2.429080     -0.449525
  C      -3.156513     -0.929384      0.158462
  H      -2.060525      0.579251      1.209216
  H      -4.076597     -0.780725      0.722159
  H      -3.431147     -1.206056     -0.860315
  H      -2.628981     -1.767727      0.610475
  C      -0.872505      0.405036     -1.740348
  C       0.450581      0.253617     -2.274220
  H      -1.687351      0.785058     -2.349652
  C       1.543406      0.227520     -1.419140
  C       2.736645     -0.033278     -2.147073
  S       0.872184      0.014283     -3.907889
  C       2.522217     -0.160504     -3.487995
  H       1.608330      1.228961     -0.568639
  H       3.721978     -0.069404     -1.705804
  H       3.255954     -0.328942     -4.261700
  H      -0.748065     -3.226091     -0.191053
  H      -0.913924     -2.382346      2.391692
  H       1.531828     -1.532699      3.120781
  O       1.611416      2.316326      0.169584
  O       0.549175      0.987375      1.604991
  C       1.061930      2.101740      1.267067
  C       1.017701      3.199197      2.287790
  H       0.989142      4.174227      1.808359
  H       1.927070      3.155430      2.890184
  H       0.170224      3.084855      2.958799
  H       3.217273     -1.924775      1.078071
  H       1.784199     -2.940219     -0.994751
39
Coordinates from ORCA-job reaction4-IEIP_ts_guess_scan_6-13_orca E -1288.400112870832
  Ir      0.598104     -0.745131      0.493754
  C       0.064793     -2.835896      0.405697
  C      -0.046359     -2.358950      1.759553
  C       2.155301     -2.132614      1.091843
  C       1.403734     -2.683801     -0.009184
  C       1.261704     -1.961616      2.171524
  N      -1.040888      0.112577     -0.502186
  C      -2.326691      0.343507      0.178691
  C      -3.110531      1.523905     -0.377942
  H      -3.945190      1.737609      0.288174
  H      -3.540948      1.323129     -1.359918
  H      -2.501998      2.426385     -0.439300
  C      -3.155479     -0.935561      0.153609
  H      -2.063000      0.570668      1.212669
  H      -4.077244     -0.791121      0.715745
  H      -3.427266     -1.208165     -0.867029
  H      -2.627968     -1.775390      0.602739
  C      -0.873533      0.412099     -1.737576
  C       0.448322      0.262589     -2.273615
  H      -1.688884      0.794658     -2.344465
  C       1.542431      0.218982     -1.421374
  C       2.733257     -0.038844     -2.153347
  S       0.867447      0.041020     -3.911344
  C       2.516087     -0.146551     -3.496086
  H       1.622248      1.216210     -0.564687
  H       3.719089     -0.085658     -1.714301
  H       3.248066     -0.308058     -4.272957
  H      -0.739339     -3.230044     -0.198664
  H      -0.927501     -2.383233      2.382947
  H       1.511262     -1.529586      3.130402
  O       1.639993      2.303757      0.173062
  O       0.546981      0.990828      1.600246
  C       1.073542      2.099548      1.264053
  C       1.024468      3.203163      2.277833
  H       0.999039      4.174720      1.791074
  H       1.930913      3.163143      2.884778
  H       0.173355      3.094203      2.944983
  H       3.213731     -1.922137      1.102455
  H       1.798322     -2.941151     -0.981115
39
Coordinates from ORCA-job reaction4-IEIP_ts_guess_scan_6-13_orca E -1288.400118269351
  Ir      0.597239     -0.744947      0.494077
  C       0.069227     -2.836908      0.402141
  C      -0.053791     -2.359682      1.755191
  C       2.152945     -2.128937      1.105514
  C       1.411415     -2.682195     -0.000994
  C       1.249866     -1.959630      2.177781
  N      -1.041964      0.113816     -0.500661
  C      -2.328256      0.340079      0.180642
  C      -3.114344      1.520882     -0.372256
  H      -3.949070      1.731137      0.294842
  H      -3.544617      1.322282     -1.354740
  H      -2.507327      2.424544     -0.431156
  C      -3.154783     -0.940305      0.150091
  H      -2.065532      0.564483      1.215456
  H      -4.077685     -0.799737      0.711388
  H      -3.424646     -1.209643     -0.871929
  H      -2.626631     -1.781105      0.596568
  C      -0.875028      0.418629     -1.735097
  C       0.445884      0.270279     -2.273162
  H      -1.690769      0.803531     -2.339894
  C       1.541274      0.214192     -1.423690
  C       2.729469     -0.044092     -2.159319
  S       0.861672      0.058612     -3.913732
  C       2.509359     -0.139416     -3.502806
  H       1.635622      1.205942     -0.559678
  H       3.715941     -0.098782     -1.722654
  H       3.239430     -0.298068     -4.282072
  H      -0.728495     -3.233859     -0.208796
  H      -0.939609     -2.386002      2.371839
  H       1.490687     -1.526724      3.138510
  O       1.668231      2.292439      0.179110
  O       0.544541      0.994333      1.596284
  C       1.084906      2.097628      1.263027
  C       1.030671      3.206113      2.271018
  H       1.006769      4.174774      1.778261
  H       1.934887      3.170467      2.881474
  H       0.176716      3.100577      2.934935
  H       3.210845     -1.916508      1.124896
  H       1.814321     -2.939007     -0.969671
39
Coordinates from ORCA-job reaction4-IEIP_ts_guess_scan_6-13_orca E -1288.400120209745
  Ir      0.596560     -0.743351      0.493440
  C       0.076200     -2.837602      0.395824
  C      -0.060760     -2.361007      1.748036
  C       2.151189     -2.122530      1.119133
  C       1.421745     -2.678494      0.006360
  C       1.237067     -1.956809      2.183019
  N      -1.043932      0.115435     -0.499334
  C      -2.330647      0.337528      0.182255
  C      -3.118984      1.518495     -0.367202
  H      -3.954148      1.725228      0.300395
  H      -3.548609      1.321808     -1.350359
  H      -2.513611      2.423440     -0.423355
  C      -3.154914     -0.944194      0.146853
  H      -2.068616      0.559247      1.217838
  H      -4.078287     -0.807621      0.708371
  H      -3.423991     -1.210033     -0.876297
  H      -2.625426     -1.785937      0.589948
  C      -0.877303      0.424728     -1.732735
  C       0.442819      0.276832     -2.272894
  H      -1.693334      0.812030     -2.335601
  C       1.539687      0.212854     -1.426238
  C       2.724881     -0.048576     -2.165676
  S       0.853798      0.067666     -3.915363
  C       2.501207     -0.138539     -3.508962
  H       1.649525      1.197295     -0.553398
  H       3.712273     -0.108305     -1.731715
  H       3.229019     -0.297982     -4.290174
  H      -0.713972     -3.238169     -0.222467
  H      -0.951772     -2.391109      2.356979
  H       1.467135     -1.523387      3.146160
  O       1.699042      2.281126      0.188359
  O       0.541677      0.998304      1.592556
  C       1.097492      2.095586      1.263985
  C       1.037730      3.208274      2.266770
  H       1.012579      4.174322      1.768741
  H       1.941032      3.178872      2.878856
  H       0.182367      3.104005      2.928917
  H       3.208187     -1.906871      1.148447
  H       1.834465     -2.933371     -0.958731
39
Coordinates from ORCA-job reaction4-IEIP_ts_guess_scan_6-13_orca E -1288.400124059596
  Ir      0.596497     -0.741452      0.492257
  C       0.080943     -2.837465      0.391275
  C      -0.062492     -2.361971      1.743202
  C       2.151251     -2.117627      1.123477
  C       1.427707     -2.675256      0.007929
  C       1.232043     -1.954848      2.183768
  N      -1.045615      0.115663     -0.499366
  C      -2.332327      0.337352      0.182244
  C      -3.120776      1.518681     -0.366048
  H      -3.956514      1.724234      0.301160
  H      -3.549612      1.322984     -1.349749
  H      -2.515703      2.423942     -0.420486
  C      -3.156408     -0.944507      0.145618
  H      -2.070149      0.557837      1.218082
  H      -4.078913     -0.809229      0.708829
  H      -3.426968     -1.208371     -0.877651
  H      -2.625859     -1.786935      0.586218
  C      -0.879004      0.424936     -1.732480
  C       0.441093      0.276494     -2.273284
  H      -1.695032      0.812830     -2.335070
  C       1.538628      0.216020     -1.427278
  C       2.722797     -0.048624     -2.167856
  S       0.849297      0.060654     -3.915216
  C       2.497632     -0.144545     -3.510165
  H       1.653414      1.197196     -0.551158
  H       3.710735     -0.106330     -1.734770
  H       3.224563     -0.307636     -4.291420
  H      -0.705867     -3.239958     -0.230031
  H      -0.955735     -2.394882      2.348719
  H       1.456641     -1.521472      3.148222
  O       1.709681      2.278736      0.193459
  O       0.540567      0.999979      1.591614
  C       1.102219      2.095046      1.266075
  C       1.041379      3.207942      2.268508
  H       1.011072      4.173708      1.770110
  H       1.947028      3.183021      2.877328
  H       0.188500      3.100811      2.933348
  H       3.207653     -1.899736      1.157102
  H       1.845006     -2.928033     -0.955777
39
Coordinates from ORCA-job reaction4-IEIP_ts_guess_scan_6-13_orca E -1288.400127607342
  Ir      0.596188     -0.740221      0.491624
  C       0.083649     -2.837199      0.389448
  C      -0.063284     -2.362289      1.741138
  C       2.151240     -2.114057      1.125945
  C       1.431011     -2.673199      0.009120
  C       1.229254     -1.952858      2.184354
  N      -1.047070      0.114649     -0.499950
  C      -2.333846      0.336639      0.181514
  C      -3.121362      1.519018     -0.365565
  H      -3.957811      1.723653      0.301028
  H      -3.549263      1.325054     -1.350015
  H      -2.516022      2.424233     -0.417725
  C      -3.158534     -0.944857      0.143478
  H      -2.071655      0.555544      1.217698
  H      -4.079847     -0.810414      0.708796
  H      -3.431094     -1.206320     -0.879870
  H      -2.627215     -1.788359      0.581201
  C      -0.880428      0.422892     -1.732970
  C       0.439789      0.274203     -2.273937
  H      -1.696484      0.810578     -2.335789
  C       1.537474      0.218382     -1.427762
  C       2.721688     -0.047049     -2.168578
  S       0.846887      0.054230     -3.914980
  C       2.496313     -0.148198     -3.510168
  H       1.653155      1.199058     -0.551587
  H       3.709765     -0.102153     -1.735409
  H       3.223090     -0.313276     -4.291118
  H      -0.701582     -3.240811     -0.233133
  H      -0.957776     -2.396613      2.344731
  H       1.450695     -1.519101      3.149369
  O       1.712527      2.278930      0.195205
  O       0.540241      1.000959      1.591108
  C       1.104267      2.094886      1.267326
  C       1.045684      3.207132      2.270744
  H       1.008571      4.173153      1.773240
  H       1.955579      3.185944      2.873363
  H       0.197546      3.096460      2.941030
  H       3.207304     -1.894918      1.161771
  H       1.850725     -2.924518     -0.953932
39
Coordinates from ORCA-job reaction4-IEIP_ts_guess_scan_6-13_orca E -1288.400130150494
  Ir      0.595469     -0.739725      0.491550
  C       0.085683     -2.837183      0.388567
  C      -0.064936     -2.362488      1.739962
  C       2.150691     -2.111170      1.129655
  C       1.433831     -2.671821      0.011464
  C       1.225816     -1.950963      2.185943
  N      -1.048357      0.113348     -0.500397
  C      -2.335271      0.335007      0.181037
  C      -3.121649      1.518974     -0.364052
  H      -3.958709      1.722367      0.302170
  H      -3.548726      1.327621     -1.349366
  H      -2.515856      2.424033     -0.413379
  C      -3.160596     -0.946042      0.140354
  H      -2.073340      0.551691      1.217747
  H      -4.080955     -0.812869      0.707515
  H      -3.434747     -1.204389     -0.883354
  H      -2.628783     -1.791002      0.574731
  C      -0.881861      0.421040     -1.733395
  C       0.438421      0.272653     -2.274468
  H      -1.698065      0.808253     -2.336386
  C       1.536107      0.218881     -1.428151
  C       2.720586     -0.045875     -2.169060
  S       0.845274      0.052312     -3.915110
  C       2.495384     -0.148486     -3.510449
  H       1.652569      1.199724     -0.552773
  H       3.708603     -0.099858     -1.735588
  H       3.222175     -0.313516     -4.291379
  H      -0.697864     -3.241777     -0.235502
  H      -0.960898     -2.397555      2.341332
  H       1.444191     -1.516520      3.151353
  O       1.715176      2.278360      0.195539
  O       0.539832      1.002095      1.590097
  C       1.106449      2.094694      1.267487
  C       1.050926      3.206865      2.271308
  H       1.006080      4.172660      1.773930
  H       1.965763      3.190066      2.866537
  H       0.208430      3.093021      2.948108
  H       3.206484     -1.891167      1.167945
  H       1.856042     -2.922066     -0.950782
39
Coordinates from ORCA-job reaction4-IEIP_ts_guess_scan_6-13_orca E -1288.400133881469
  Ir      0.594429     -0.739511      0.491835
  C       0.088489     -2.837396      0.387240
  C      -0.067523     -2.363105      1.738293
  C       2.149853     -2.107782      1.135388
  C       1.437834     -2.670166      0.015014
  C       1.220845     -1.948998      2.188512
  N      -1.049816      0.111634     -0.500742
  C      -2.336820      0.332703      0.180855
  C      -3.121298      1.519309     -0.361086
  H      -3.958945      1.721215      0.304880
  H      -3.547480      1.332058     -1.347565
  H      -2.514444      2.423843     -0.406470
  C      -3.163296     -0.947483      0.135970
  H      -2.075254      0.546086      1.218317
  H      -4.082562     -0.816057      0.705310
  H      -3.439282     -1.201295     -0.888371
  H      -2.631249     -1.794706      0.565706
  C      -0.883832      0.418455     -1.733964
  C       0.436544      0.270706     -2.275101
  H      -1.700367      0.804616     -2.337205
  C       1.534202      0.218435     -1.428620
  C       2.719156     -0.044794     -2.169422
  S       0.843696      0.050994     -3.915488
  C       2.494353     -0.147749     -3.510831
  H       1.651061      1.200026     -0.554895
  H       3.707033     -0.097656     -1.735485
  H       3.221247     -0.311732     -4.291873
  H      -0.692458     -3.243223     -0.239285
  H      -0.965713     -2.399023      2.336285
  H       1.434962     -1.513781      3.154530
  O       1.717512      2.277463      0.194812
  O       0.539081      1.003500      1.588626
  C       1.108841      2.094530      1.266962
  C       1.057532      3.206731      2.271085
  H       0.999716      4.171772      1.773453
  H       1.980109      3.197573      2.854398
  H       0.224233      3.087727      2.958216
  H       3.205285     -1.886768      1.177463
  H       1.863695     -2.918963     -0.946006
39
Coordinates from ORCA-job reaction4-IEIP_ts_guess_scan_6-13_orca E -1288.400137491300
  Ir      0.593643     -0.739496      0.492355
  C       0.091107     -2.837725      0.385583
  C      -0.070246     -2.364014      1.736368
  C       2.148969     -2.105293      1.141197
  C       1.441667     -2.668778      0.018456
  C       1.215897     -1.948001      2.191105
  N      -1.050715      0.110499     -0.500633
  C      -2.337783      0.330728      0.181189
  C      -3.120494      1.519971     -0.357551
  H      -3.958488      1.720634      0.308374
  H      -3.545998      1.336742     -1.345068
  H      -2.512429      2.423850     -0.399356
  C      -3.165311     -0.948588      0.131955
  H      -2.076617      0.540937      1.219366
  H      -4.083948     -0.818872      0.702713
  H      -3.442374     -1.198215     -0.893120
  H      -2.633390     -1.797964      0.557654
  C      -0.885462      0.416511     -1.734237
  C       0.434934      0.269387     -2.275510
  H      -1.702449      0.801452     -2.337624
  C       1.532653      0.217286     -1.429053
  C       2.717914     -0.044619     -2.169717
  S       0.842593      0.050756     -3.915978
  C       2.493331     -0.146751     -3.511301
  H       1.649462      1.199812     -0.556804
  H       3.705706     -0.096969     -1.735537
  H       3.220244     -0.309480     -4.292592
  H      -0.687074     -3.244595     -0.243698
  H      -0.970679     -2.400720      2.330932
  H       1.425965     -1.512457      3.157865
  O       1.718942      2.276705      0.193411
  O       0.538475      1.004770      1.587395
  C       1.110683      2.094646      1.265988
  C       1.062687      3.206989      2.270093
  H       0.990081      4.170837      1.771909
  H       1.993236      3.207058      2.840635
  H       0.239383      3.081994      2.968003
  H       3.204073     -1.883539      1.187249
  H       1.871184     -2.916298     -0.941277
39
Coordinates from ORCA-job reaction4-IEIP_ts_guess_scan_6-13_orca E -1288.400141054099
  Ir      0.593371     -0.739492      0.493014
  C       0.093497     -2.838085      0.383643
  C      -0.072715     -2.365155      1.734238
  C       2.148228     -2.103798      1.146529
  C       1.445172     -2.667646      0.021420
  C       1.211439     -1.948039      2.193438
  N      -1.050989      0.110068     -0.500053
  C      -2.338141      0.329383      0.181916
  C      -3.119339      1.521010     -0.353907
  H      -3.957485      1.720765      0.312101
  H      -3.544341      1.341312     -1.342283
  H      -2.510043      2.424185     -0.392747
  C      -3.166583     -0.949113      0.128564
  H      -2.077411      0.536772      1.220741
  H      -4.085143     -0.820828      0.699783
  H      -3.443824     -1.195291     -0.897303
  H      -2.635185     -1.800337      0.551275
  C      -0.886528      0.415399     -1.734082
  C       0.433763      0.268690     -2.275651
  H      -1.704029      0.799223     -2.337446
  C       1.531696      0.215809     -1.429465
  C       2.716973     -0.045344     -2.170123
  S       0.841764      0.051070     -3.916462
  C       2.492234     -0.146196     -3.511888
  H       1.647899      1.199197     -0.558071
  H       3.704804     -0.097754     -1.736062
  H       3.219006     -0.308018     -4.293512
  H      -0.681965     -3.245772     -0.248447
  H      -0.975187     -2.402682      2.325656
  H       1.417911     -1.512714      3.161070
  O       1.719269      2.276269      0.191709
  O       0.538320      1.005673      1.586721
  C       1.111833      2.094951      1.264911
  C       1.065842      3.207537      2.268722
  H       0.976825      4.169802      1.769922
  H       2.004259      3.218436      2.826055
  H       0.253055      3.075589      2.977460
  H       3.203049     -1.881563      1.196427
  H       1.878068     -2.914124     -0.937074
39
Coordinates from ORCA-job reaction4-IEIP_ts_guess_scan_6-13_orca E -1288.400143857121
  Ir      0.593644     -0.739430      0.493535
  C       0.095027     -2.838345      0.381922
  C      -0.074474     -2.366136      1.732409
  C       2.147702     -2.103485      1.150153
  C       1.447484     -2.667046      0.023261
  C       1.208320     -1.948844      2.194955
  N      -1.050690      0.110285     -0.499235
  C      -2.337974      0.328846      0.182701
  C      -3.118274      1.522043     -0.351126
  H      -3.956437      1.721268      0.315004
  H      -3.542987      1.344604     -1.340033
  H      -2.508125      2.424721     -0.388128
  C      -3.166940     -0.949123      0.126343
  H      -2.077643      0.534284      1.221999
  H      -4.085903     -0.821724      0.697121
  H      -3.443558     -1.193242     -0.900195
  H      -2.636204     -1.801480      0.547642
  C      -0.886763      0.415287     -1.733527
  C       0.433315      0.268641     -2.275495
  H      -1.704663      0.798519     -2.336708
  C       1.531554      0.214666     -1.429744
  C       2.716557     -0.046516     -2.170587
  S       0.841210      0.051586     -3.916716
  C       2.491320     -0.146369     -3.512418
  H       1.646729      1.198470     -0.558313
  H       3.704538     -0.099434     -1.736953
  H       3.217846     -0.308008     -4.294325
  H      -0.678447     -3.246459     -0.252308
  H      -0.978315     -2.404313      2.321694
  H       1.412374     -1.514104      3.163362
  O       1.718618      2.276320      0.190298
  O       0.538894      1.006039      1.586811
  C       1.112263      2.095329      1.264179
  C       1.066785      3.208252      2.267517
  H       0.962689      4.168887      1.768292
  H       2.011620      3.229636      2.813516
  H       0.263209      3.069606      2.985314
  H       3.202346     -1.881088      1.202852
  H       1.882721     -2.912951     -0.934330
39
Coordinates from ORCA-job reaction4-IEIP_ts_guess_scan_6-13_orca E -1288.400145945098
  Ir      0.594202     -0.739396      0.493858
  C       0.095817     -2.838532      0.380700
  C      -0.075577     -2.366836      1.731112
  C       2.147372     -2.103859      1.152279
  C       1.448772     -2.666915      0.024239
  C       1.206397     -1.949828      2.195803
  N      -1.050168      0.110713     -0.498489
  C      -2.337594      0.328844      0.183290
  C      -3.117461      1.522871     -0.349430
  H      -3.955574      1.721848      0.316814
  H      -3.542076      1.346539     -1.338578
  H      -2.506864      2.425287     -0.385547
  C      -3.166837     -0.948840      0.125102
  H      -2.077561      0.533104      1.222897
  H      -4.086377     -0.821777      0.695025
  H      -3.442517     -1.192029     -0.901918
  H      -2.636745     -1.801733      0.546144
  C      -0.886422      0.415781     -1.732819
  C       0.433399      0.268945     -2.275202
  H      -1.704522      0.799048     -2.335714
  C       1.531931      0.213897     -1.429908
  C       2.716529     -0.047644     -2.171115
  S       0.840790      0.052370     -3.916775
  C       2.490673     -0.146799     -3.512915
  H       1.645986      1.197573     -0.557739
  H       3.704695     -0.101348     -1.738013
  H       3.216955     -0.308666     -4.295011
  H      -0.676436     -3.246795     -0.254905
  H      -0.980182     -2.405462      2.319202
  H       1.409018     -1.515675      3.164773
  O       1.717639      2.276427      0.189447
  O       0.539940      1.005857      1.587419
  C       1.112288      2.095454      1.263915
  C       1.066430      3.208866      2.266630
  H       0.949437      4.167964      1.767138
  H       2.016219      3.239645      2.803439
  H       0.270484      3.064348      2.991660
  H       3.201917     -1.881434      1.206708
  H       1.885393     -2.912623     -0.932777
