39
Coordinates from ORCA-job reaction4-IEIP_ts_guess_scan_14-5_orca E -1288.394810466689
  Ir      0.626771     -0.721767      0.381421
  C       0.171456     -2.845488      0.300850
  C      -0.055955     -2.409528      1.654747
  C       2.171661     -2.049362      1.140018
  C       1.537893     -2.647053     -0.000894
  C       1.177456     -1.938621      2.156078
  N      -1.075226      0.127065     -0.517571
  C      -2.336555      0.326911      0.209914
  C      -3.135221      1.531974     -0.265617
  H      -3.958607      1.703139      0.425975
  H      -3.581269      1.383643     -1.250017
  H      -2.531064      2.439287     -0.286202
  C      -3.162961     -0.953033      0.141731
  H      -2.040869      0.500811      1.245625
  H      -4.058618     -0.849029      0.752797
  H      -3.478984     -1.162472     -0.880991
  H      -2.611613     -1.816300      0.510645
  C      -0.933338      0.484937     -1.735971
  C       0.383092      0.289425     -2.249747
  H      -1.735990      0.929231     -2.315050
  C       1.391146      0.023971     -1.309616
  C       2.619441     -0.229644     -2.009776
  S       0.907965      0.250081     -3.857057
  C       2.502766     -0.138036     -3.360990
  H       1.586567      1.115901     -0.669204
  H       3.564200     -0.408827     -1.516765
  H       3.279432     -0.254185     -4.101624
  H      -0.560436     -3.289065     -0.358227
  H      -0.982425     -2.470002      2.204866
  H       1.328753     -1.495810      3.130392
  O       1.694618      2.339787      0.059660
  O       0.590291      1.028859      1.479540
  C       1.126032      2.135109      1.146112
  C       1.077051      3.238525      2.163736
  H       0.976784      4.205395      1.676408
  H       2.018079      3.249950      2.716422
  H       0.269516      3.092202      2.875810
  H       3.220240     -1.819583      1.248940
  H       2.017293     -2.899210     -0.935629
39
Coordinates from ORCA-job reaction4-IEIP_ts_guess_scan_14-5_orca E -1288.394858519275
  Ir      0.625313     -0.715128      0.377068
  C       0.175743     -2.842692      0.299363
  C      -0.052017     -2.409054      1.653983
  C       2.173476     -2.040742      1.138490
  C       1.541647     -2.640859     -0.002200
  C       1.178957     -1.933850      2.154415
  N      -1.081186      0.126820     -0.518813
  C      -2.341622      0.327561      0.210120
  C      -3.142086      1.529971     -0.269032
  H      -3.965206      1.702577      0.422501
  H      -3.588522      1.377608     -1.252648
  H      -2.539102      2.437994     -0.293282
  C      -3.166838     -0.953408      0.147710
  H      -2.044990      0.505640      1.244900
  H      -4.061928     -0.848166      0.759410
  H      -3.483869     -1.166968     -0.873857
  H      -2.614194     -1.814766      0.519145
  C      -0.938531      0.480665     -1.743059
  C       0.380196      0.285788     -2.259631
  H      -1.742338      0.921356     -2.323194
  C       1.387682      0.024923     -1.317369
  C       2.616751     -0.231020     -2.016539
  S       0.906552      0.242954     -3.866686
  C       2.500797     -0.144824     -3.368113
  H       1.589605      1.136085     -0.695724
  H       3.561653     -0.406983     -1.522472
  H       3.278021     -0.264182     -4.107550
  H      -0.554806     -3.288882     -0.359470
  H      -0.977810     -2.473242      2.204732
  H       1.329078     -1.491310      3.129043
  O       1.755466      2.311103      0.099663
  O       0.575642      1.034168      1.481709
  C       1.142143      2.128803      1.165712
  C       1.077757      3.239293      2.174379
  H       1.015438      4.204961      1.678343
  H       1.997583      3.235170      2.761782
  H       0.241411      3.113598      2.856394
  H       3.221547     -1.808840      1.248029
  H       2.021957     -2.892931     -0.936511
39
Coordinates from ORCA-job reaction4-IEIP_ts_guess_scan_14-5_orca E -1288.393943907627
  Ir      0.634529     -0.720236      0.377738
  C       0.175699     -2.850990      0.295032
  C      -0.047286     -2.428211      1.653945
  C       2.176680     -2.061535      1.136051
  C       1.542057     -2.653526     -0.006997
  C       1.183391     -1.959059      2.153595
  N      -1.070271      0.132618     -0.506402
  C      -2.329526      0.336141      0.223315
  C      -3.120673      1.547068     -0.249733
  H      -3.944551      1.720607      0.440632
  H      -3.565093      1.404153     -1.235697
  H      -2.511687      2.451275     -0.266402
  C      -3.163549     -0.938525      0.151327
  H      -2.033264      0.505409      1.259734
  H      -4.058833     -0.831360      0.762433
  H      -3.480650     -1.143113     -0.872066
  H      -2.617417     -1.806170      0.517759
  C      -0.917909      0.497968     -1.736120
  C       0.404425      0.298286     -2.259998
  H      -1.718392      0.948422     -2.313135
  C       1.405125      0.009064     -1.317639
  C       2.631037     -0.264495     -2.018691
  S       0.933941      0.263986     -3.866931
  C       2.519177     -0.162221     -3.369269
  H       1.652925      1.142328     -0.716086
  H       3.572296     -0.461189     -1.525161
  H       3.295603     -0.290022     -4.107955
  H      -0.557113     -3.291616     -0.365081
  H      -0.971754     -2.494249      2.206495
  H       1.336471     -1.524332      3.131277
  O       1.560216      2.356989      0.030118
  O       0.577953      1.024838      1.503194
  C       1.064592      2.144771      1.151485
  C       1.036385      3.250447      2.165899
  H       0.880581      4.211662      1.681824
  H       2.004734      3.292911      2.667520
  H       0.272722      3.082115      2.919943
  H       3.226069     -1.836328      1.247221
  H       2.020728     -2.904690     -0.942436
39
Coordinates from ORCA-job reaction4-IEIP_ts_guess_scan_14-5_orca E -1288.395142062710
  Ir      0.626202     -0.721634      0.379072
  C       0.166494     -2.849106      0.307891
  C      -0.055018     -2.416521      1.663806
  C       2.169395     -2.055323      1.140931
  C       1.532540     -2.653533      0.002297
  C       1.177801     -1.945142      2.159592
  N      -1.077779      0.125581     -0.513707
  C      -2.338605      0.326109      0.213194
  C      -3.135196      1.531738     -0.264353
  H      -3.960426      1.703636      0.424861
  H      -3.578268      1.383510     -1.250122
  H      -2.530384      2.438653     -0.283497
  C      -3.166092     -0.953037      0.144558
  H      -2.043765      0.500014      1.249125
  H      -4.062318     -0.848223      0.754670
  H      -3.481276     -1.162502     -0.878414
  H      -2.615785     -1.816658      0.514289
  C      -0.931735      0.485311     -1.738461
  C       0.388114      0.292535     -2.257773
  H      -1.734672      0.930878     -2.315931
  C       1.391558      0.014180     -1.315863
  C       2.623616     -0.233809     -2.014188
  S       0.918918      0.265301     -3.863818
  C       2.512429     -0.126764     -3.364716
  H       1.601938      1.132628     -0.693589
  H       3.566983     -0.415753     -1.519275
  H       3.292572     -0.234992     -4.102794
  H      -0.567661     -3.292839     -0.348573
  H      -0.979273     -2.477463      2.217431
  H       1.332413     -1.503390      3.133859
  O       1.681311      2.347694      0.053494
  O       0.590041      1.030969      1.480232
  C       1.120280      2.138785      1.144937
  C       1.075262      3.241416      2.162191
  H       0.968557      4.208156      1.675930
  H       2.020035      3.255420      2.708365
  H       0.272993      3.091696      2.879326
  H       3.218838     -1.828907      1.248527
  H       2.009337     -2.909423     -0.932762
39
Coordinates from ORCA-job reaction4-IEIP_ts_guess_scan_14-5_orca E -1288.395178455526
  Ir      0.625010     -0.721096      0.379261
  C       0.164639     -2.847798      0.311026
  C      -0.056967     -2.415023      1.666715
  C       2.167390     -2.054056      1.143590
  C       1.530854     -2.652828      0.005365
  C       1.175663     -1.943535      2.162162
  N      -1.078080      0.124808     -0.515148
  C      -2.339423      0.323557      0.211231
  C      -3.138328      1.527819     -0.266051
  H      -3.963820      1.698200      0.423226
  H      -3.581255      1.378849     -1.251744
  H      -2.535121      2.435799     -0.285184
  C      -3.164806     -0.957019      0.143269
  H      -2.044741      0.498061      1.247173
  H      -4.061182     -0.853444      0.753389
  H      -3.479604     -1.167487     -0.879603
  H      -2.612943     -1.819457      0.513437
  C      -0.932849      0.485868     -1.738198
  C       0.385962      0.294928     -2.257913
  H      -1.736355      0.931855     -2.314483
  C       1.389220      0.012859     -1.316998
  C       2.621284     -0.232519     -2.015714
  S       0.919104      0.283469     -3.863280
  C       2.509976     -0.120965     -3.365903
  H       1.600719      1.134959     -0.700302
  H       3.563871     -0.419940     -1.521497
  H       3.289729     -0.229127     -4.104426
  H      -0.569506     -3.291742     -0.345289
  H      -0.981489     -2.475119      2.220014
  H       1.330292     -1.501096      3.136116
  O       1.703681      2.339452      0.060888
  O       0.590299      1.032470      1.477751
  C       1.129304      2.136325      1.146466
  C       1.080377      3.241767      2.160890
  H       0.984812      4.208161      1.671639
  H       2.019397      3.251145      2.717035
  H       0.269665      3.098571      2.869852
  H       3.216864     -1.827950      1.251417
  H       2.007726     -2.909531     -0.929439
39
Coordinates from ORCA-job reaction4-IEIP_ts_guess_scan_14-5_orca E -1288.395219103411
  Ir      0.623031     -0.723394      0.380269
  C       0.159275     -2.848821      0.318514
  C      -0.060958     -2.415502      1.674172
  C       2.163161     -2.056859      1.148710
  C       1.525817     -2.656356      0.011695
  C       1.171929     -1.944604      2.167904
  N      -1.078743      0.123002     -0.516132
  C      -2.341078      0.319390      0.209305
  C      -3.141797      1.522956     -0.266746
  H      -3.967876      1.691081      0.422341
  H      -3.584074      1.374514     -1.252801
  H      -2.540046      2.431944     -0.284406
  C      -3.164818     -0.962221      0.140190
  H      -2.047188      0.493321      1.245652
  H      -4.061786     -0.860089      0.749677
  H      -3.478479     -1.172603     -0.883047
  H      -2.612082     -1.824014      0.510440
  C      -0.933311      0.487269     -1.737615
  C       0.384461      0.297231     -2.258404
  H      -1.737349      0.933900     -2.312631
  C       1.386143      0.006328     -1.318308
  C       2.620076     -0.230485     -2.016545
  S       0.920215      0.299240     -3.862893
  C       2.512419     -0.099138     -3.365340
  H       1.600472      1.136361     -0.710444
  H       3.561544     -0.422939     -1.522249
  H       3.294702     -0.194886     -4.102931
  H      -0.575723     -3.292724     -0.336891
  H      -0.985487     -2.473379      2.227671
  H       1.327736     -1.501001      3.141140
  O       1.716142      2.334991      0.058141
  O       0.594354      1.034101      1.473461
  C       1.137992      2.134752      1.142700
  C       1.090517      3.242909      2.154571
  H       1.000014      4.208693      1.663197
  H       2.027963      3.249871      2.713429
  H       0.277244      3.104218      2.861518
  H       3.213026     -1.832470      1.256287
  H       2.001933     -2.915393     -0.922860
39
Coordinates from ORCA-job reaction4-IEIP_ts_guess_scan_14-5_orca E -1288.395265433849
  Ir      0.620627     -0.727705      0.381261
  C       0.153253     -2.851444      0.327599
  C      -0.066052     -2.417658      1.683314
  C       2.157905     -2.060948      1.156040
  C       1.520416     -2.661745      0.020141
  C       1.166638     -1.946835      2.175590
  N      -1.079516      0.119780     -0.517031
  C      -2.342767      0.313457      0.207887
  C      -3.144724      1.517139     -0.265662
  H      -3.971215      1.682517      0.423539
  H      -3.586518      1.370553     -1.252231
  H      -2.544066      2.426912     -0.280830
  C      -3.165394     -0.968712      0.136048
  H      -2.049714      0.485625      1.244838
  H      -4.063120     -0.868078      0.744636
  H      -3.477643     -1.177875     -0.887876
  H      -2.612446     -1.830525      0.505797
  C      -0.932949      0.490611     -1.736491
  C       0.384842      0.303782     -2.258016
  H      -1.736836      0.940582     -2.309127
  C       1.383568     -0.001984     -1.319107
  C       2.619955     -0.228596     -2.016729
  S       0.927426      0.335783     -3.859857
  C       2.516251     -0.076723     -3.363825
  H       1.602966      1.137387     -0.720519
  H       3.559171     -0.432427     -1.522758
  H       3.300668     -0.162719     -4.100377
  H      -0.582276     -3.295634     -0.327060
  H      -0.990882     -2.473093      2.236505
  H       1.323254     -1.501658      3.147970
  O       1.714530      2.338614      0.044611
  O       0.600275      1.036018      1.466259
  C       1.141676      2.136034      1.132459
  C       1.102086      3.244263      2.144762
  H       1.009333      4.210275      1.654335
  H       2.043079      3.250119      2.697661
  H       0.293231      3.106032      2.856849
  H       3.208120     -1.838328      1.263926
  H       1.996218     -2.923608     -0.913791
39
Coordinates from ORCA-job reaction4-IEIP_ts_guess_scan_14-5_orca E -1288.395278071728
  Ir      0.620767     -0.730173      0.381001
  C       0.152862     -2.853036      0.328087
  C      -0.068027     -2.419364      1.683702
  C       2.156579     -2.062602      1.159104
  C       1.520686     -2.663879      0.022572
  C       1.163926     -1.948402      2.177508
  N      -1.078677      0.118858     -0.516866
  C      -2.341335      0.312963      0.208995
  C      -3.142596      1.517509     -0.263412
  H      -3.968504      1.682944      0.426487
  H      -3.585106      1.371985     -1.249827
  H      -2.541314      2.426880     -0.278236
  C      -3.164784     -0.968591      0.136602
  H      -2.047582      0.484399      1.245849
  H      -4.062408     -0.867523      0.745269
  H      -3.477227     -1.177056     -0.887397
  H      -2.612502     -1.831036      0.505923
  C      -0.932134      0.491905     -1.735792
  C       0.385638      0.304660     -2.257684
  H      -1.735651      0.943599     -2.307559
  C       1.383841     -0.004675     -1.319403
  C       2.620516     -0.229317     -2.017278
  S       0.929133      0.342083     -3.859062
  C       2.517688     -0.071639     -3.363858
  H       1.604564      1.137523     -0.724694
  H       3.559270     -0.436196     -1.523679
  H       3.302556     -0.154485     -4.100289
  H      -0.581779     -3.297415     -0.327443
  H      -0.993707     -2.474428      2.235499
  H       1.319375     -1.502972      3.149943
  O       1.705868      2.341481      0.037565
  O       0.601523      1.035077      1.463802
  C       1.139073      2.136364      1.128307
  C       1.100951      3.244147      2.141123
  H       1.003504      4.210074      1.651429
  H       2.044339      3.252174      2.689878
  H       0.295607      3.103554      2.856717
  H       3.206668     -1.840070      1.268457
  H       1.997768     -2.926126     -0.910599
39
Coordinates from ORCA-job reaction4-IEIP_ts_guess_scan_14-5_orca E -1288.395284478796
  Ir      0.621165     -0.732098      0.380680
  C       0.154059     -2.854446      0.327653
  C      -0.069675     -2.420643      1.682937
  C       2.155810     -2.062893      1.162781
  C       1.522650     -2.665057      0.025178
  C       1.160925     -1.949012      2.179286
  N      -1.078512      0.118269     -0.516647
  C      -2.340814      0.312227      0.210043
  C      -3.141425      1.517920     -0.260484
  H      -3.966948      1.682793      0.430032
  H      -3.584392      1.374195     -1.246957
  H      -2.539642      2.426985     -0.274094
  C      -3.164999     -0.968717      0.135783
  H      -2.046638      0.482175      1.246989
  H      -4.062670     -0.867860      0.744427
  H      -3.477425     -1.175574     -0.888541
  H      -2.613421     -1.832092      0.503936
  C      -0.932018      0.493237     -1.735114
  C       0.385868      0.305292     -2.257226
  H      -1.735081      0.946400     -2.306305
  C       1.384067     -0.005916     -1.319509
  C       2.620627     -0.229847     -2.017940
  S       0.929429      0.345367     -3.858451
  C       2.517834     -0.069583     -3.364276
  H       1.604782      1.138133     -0.727986
  H       3.559250     -0.438535     -1.524837
  H       3.302661     -0.151074     -4.100893
  H      -0.578912     -3.299641     -0.329187
  H      -0.996538     -2.475885      2.232722
  H       1.314188     -1.503312      3.151932
  O       1.700864      2.343701      0.032402
  O       0.602751      1.034926      1.461557
  C       1.137180      2.137344      1.124589
  C       1.101158      3.244232      2.138404
  H       1.001334      4.210455      1.649775
  H       2.046241      3.252567      2.684242
  H       0.298186      3.102355      2.856398
  H       3.205560     -1.839832      1.274319
  H       2.001886     -2.927370     -0.906879
39
Coordinates from ORCA-job reaction4-IEIP_ts_guess_scan_14-5_orca E -1288.395288285672
  Ir      0.622085     -0.734195      0.380152
  C       0.156700     -2.856063      0.325805
  C      -0.072031     -2.422278      1.680522
  C       2.154891     -2.062604      1.168147
  C       1.526472     -2.665918      0.028593
  C       1.156142     -1.949672      2.181388
  N      -1.078126      0.118075     -0.515827
  C      -2.339951      0.311415      0.211953
  C      -3.139676      1.518935     -0.255353
  H      -3.964837      1.682591      0.435906
  H      -3.583022      1.378274     -1.242093
  H      -2.537232      2.427600     -0.266614
  C      -3.165020     -0.968735      0.134281
  H      -2.045231      0.478678      1.249143
  H      -4.062686     -0.868817      0.743103
  H      -3.477540     -1.172623     -0.890605
  H      -2.614180     -1.833601      0.500021
  C      -0.932025      0.495259     -1.733703
  C       0.385846      0.306326     -2.256456
  H      -1.734561      0.950431     -2.303998
  C       1.384460     -0.006595     -1.319667
  C       2.620281     -0.231068     -2.019404
  S       0.928431      0.348023     -3.857843
  C       2.516695     -0.069366     -3.365532
  H       1.604829      1.139228     -0.731992
  H       3.559008     -0.441646     -1.527284
  H       3.300890     -0.150752     -4.102826
  H      -0.573334     -3.302632     -0.333354
  H      -1.000868     -2.478155      2.226910
  H       1.305516     -1.503882      3.154582
  O       1.698518      2.345525      0.027537
  O       0.605323      1.034564      1.458770
  C       1.138161      2.137655      1.121156
  C       1.100228      3.244724      2.134626
  H       0.998278      4.210660      1.645845
  H       2.045568      3.254882      2.679977
  H       0.297912      3.101452      2.853071
  H       3.204032     -1.838580      1.283446
  H       2.009424     -2.927924     -0.901643
39
Coordinates from ORCA-job reaction4-IEIP_ts_guess_scan_14-5_orca E -1288.395289302068
  Ir      0.622809     -0.734793      0.379722
  C       0.160491     -2.856824      0.323381
  C      -0.074185     -2.423261      1.677385
  C       2.154129     -2.060338      1.173921
  C       1.531385     -2.665034      0.032161
  C       1.150932     -1.949120      2.183412
  N      -1.078145      0.118166     -0.515082
  C      -2.339757      0.310498      0.213242
  C      -3.138788      1.519634     -0.251031
  H      -3.963986      1.681859      0.440526
  H      -3.581975      1.381936     -1.238257
  H      -2.535882      2.428020     -0.259673
  C      -3.165305     -0.969128      0.132028
  H      -2.044831      0.475057      1.250796
  H      -4.062908     -0.870703      0.741197
  H      -3.477985     -1.169923     -0.893419
  H      -2.614721     -1.835321      0.495034
  C      -0.932684      0.496312     -1.732606
  C       0.385004      0.306862     -2.256128
  H      -1.735055      0.952576     -2.302265
  C       1.384325     -0.006118     -1.320021
  C       2.619149     -0.232276     -2.021151
  S       0.925763      0.347124     -3.858026
  C       2.514339     -0.071222     -3.367202
  H       1.603926      1.140834     -0.735547
  H       3.558268     -0.443229     -1.529928
  H       3.297677     -0.153689     -4.105286
  H      -0.565971     -3.305277     -0.338418
  H      -1.005192     -2.480402      2.219954
  H       1.295585     -1.503330      3.157309
  O       1.697759      2.346754      0.024564
  O       0.606936      1.034915      1.456713
  C       1.137735      2.138744      1.118254
  C       1.101706      3.244786      2.132930
  H       1.000243      4.211358      1.645325
  H       2.047530      3.253448      2.677511
  H       0.299915      3.101450      2.851939
  H       3.202474     -1.834829      1.293502
  H       2.018657     -2.926327     -0.896028
39
Coordinates from ORCA-job reaction4-IEIP_ts_guess_scan_14-5_orca E -1288.395290318009
  Ir      0.623400     -0.734354      0.379661
  C       0.164104     -2.857086      0.321098
  C      -0.075324     -2.424290      1.674653
  C       2.153863     -2.057989      1.178249
  C       1.535726     -2.663514      0.034633
  C       1.147169     -1.948820      2.184830
  N      -1.078415      0.118355     -0.514291
  C      -2.340125      0.309725      0.214029
  C      -3.138367      1.520380     -0.247610
  H      -3.963876      1.681378      0.443848
  H      -3.581043      1.385386     -1.235435
  H      -2.534919      2.428424     -0.253711
  C      -3.166242     -0.969362      0.129575
  H      -2.045382      0.471677      1.252057
  H      -4.063596     -0.872449      0.739352
  H      -3.479360     -1.167121     -0.896336
  H      -2.615731     -1.836779      0.489758
  C      -0.933549      0.496275     -1.731821
  C       0.383841      0.306941     -2.256178
  H      -1.736152      0.952631     -2.301109
  C       1.383833     -0.005404     -1.320449
  C       2.617864     -0.233191     -2.022644
  S       0.922882      0.344992     -3.858611
  C       2.511842     -0.073955     -3.368699
  H       1.602929      1.141797     -0.737040
  H       3.557459     -0.443476     -1.532033
  H       3.294400     -0.157976     -4.107439
  H      -0.559425     -3.307073     -0.342853
  H      -1.007986     -2.482828      2.214236
  H       1.287942     -1.503339      3.159435
  O       1.699613      2.346943      0.023941
  O       0.608764      1.035471      1.456315
  C       1.139680      2.139137      1.117666
  C       1.103329      3.245452      2.132091
  H       1.003180      4.212072      1.644324
  H       2.048505      3.253469      2.677817
  H       0.300599      3.102758      2.850190
  H       3.201540     -1.831242      1.301284
  H       2.026400     -2.923825     -0.892042
39
Coordinates from ORCA-job reaction4-IEIP_ts_guess_scan_14-5_orca E -1288.395291813230
  Ir      0.623997     -0.733351      0.379772
  C       0.169522     -2.857254      0.317514
  C      -0.077039     -2.426345      1.670548
  C       2.153301     -2.054305      1.184788
  C       1.542164     -2.660759      0.038260
  C       1.141422     -1.948816      2.187063
  N      -1.078735      0.118221     -0.513223
  C      -2.340494      0.308618      0.215113
  C      -3.137175      1.521719     -0.242748
  H      -3.963009      1.681384      0.448607
  H      -3.579287      1.390689     -1.231359
  H      -2.532512      2.428963     -0.245419
  C      -3.167814     -0.969451      0.126393
  H      -2.045952      0.466768      1.253803
  H      -4.064359     -0.874567      0.737661
  H      -3.482273     -1.162689     -0.899983
  H      -2.617289     -1.838745      0.482091
  C      -0.934965      0.494961     -1.731081
  C       0.381834      0.306156     -2.256767
  H      -1.738314      0.950654     -2.299921
  C       1.382641     -0.005133     -1.321450
  C       2.615924     -0.234308     -2.024754
  S       0.918908      0.341824     -3.859819
  C       2.508532     -0.077111     -3.370776
  H       1.601312      1.142448     -0.738815
  H       3.556124     -0.443369     -1.534766
  H       3.290256     -0.162598     -4.110236
  H      -0.549551     -3.309314     -0.349833
  H      -1.012226     -2.487083      2.205521
  H       1.276300     -1.503991      3.162798
  O       1.700658      2.347142      0.022539
  O       0.611186      1.036171      1.456335
  C       1.141774      2.139590      1.116858
  C       1.106024      3.246475      2.130787
  H       1.007731      4.213109      1.642710
  H       2.050581      3.253366      2.677607
  H       0.302341      3.105017      2.848088
  H       3.199945     -1.825722      1.313093
  H       2.037890     -2.919173     -0.886258
39
Coordinates from ORCA-job reaction4-IEIP_ts_guess_scan_14-5_orca E -1288.395294336534
  Ir      0.624519     -0.732897      0.380028
  C       0.175012     -2.857718      0.313891
  C      -0.078757     -2.429133      1.666502
  C       2.152717     -2.051052      1.191637
  C       1.548709     -2.658224      0.042046
  C       1.135634     -1.949524      2.189565
  N      -1.078968      0.117426     -0.512273
  C      -2.340539      0.307491      0.216457
  C      -3.134970      1.523525     -0.237466
  H      -3.960773      1.682408      0.454098
  H      -3.576978      1.396754     -1.226681
  H      -2.528490      2.429549     -0.236952
  C      -3.169813     -0.969049      0.123622
  H      -2.045968      0.461710      1.255729
  H      -4.065251     -0.875686      0.736734
  H      -3.486130     -1.157517     -0.903080
  H      -2.619671     -1.840546      0.474561
  C      -0.936437      0.492828     -1.730642
  C       0.379779      0.304367     -2.257552
  H      -1.740675      0.947493     -2.299097
  C       1.381252     -0.006115     -1.322658
  C       2.614253     -0.235149     -2.026617
  S       0.915732      0.339498     -3.860962
  C       2.505977     -0.078694     -3.372572
  H       1.599598      1.142157     -0.740648
  H       3.554886     -0.443288     -1.537051
  H       3.287238     -0.164285     -4.112510
  H      -0.539528     -3.311618     -0.357045
  H      -1.016573     -2.491993      2.196625
  H       1.264540     -1.505430      3.166432
  O       1.698978      2.347528      0.019630
  O       0.613402      1.036610      1.456430
  C       1.142592      2.140067      1.115304
  C       1.108212      3.247625      2.128607
  H       1.010971      4.214143      1.640134
  H       2.052713      3.253675      2.675538
  H       0.304379      3.107305      2.845989
  H       3.198281     -1.820634      1.325339
  H       2.049518     -2.914415     -0.880353
39
Coordinates from ORCA-job reaction4-IEIP_ts_guess_scan_14-5_orca E -1288.395297770102
  Ir      0.625201     -0.732980      0.380416
  C       0.182179     -2.858536      0.308981
  C      -0.081134     -2.433228      1.661045
  C       2.151862     -2.047311      1.200872
  C       1.557328     -2.655182      0.047107
  C       1.127916     -1.951012      2.192951
  N      -1.079034      0.115775     -0.511067
  C      -2.340034      0.306026      0.218712
  C      -3.130861      1.526425     -0.229737
  H      -3.956158      1.684793      0.462560
  H      -3.573331      1.405628     -1.219496
  H      -2.521421      2.430436     -0.225292
  C      -3.172579     -0.967989      0.120524
  H      -2.045086      0.454936      1.258617
  H      -4.066317     -0.876159      0.736338
  H      -3.491778     -1.149913     -0.906472
  H      -2.623374     -1.842726      0.464940
  C      -0.938351      0.489311     -1.730291
  C       0.377159      0.300927     -2.258652
  H      -1.743843      0.942315     -2.298323
  C       1.379448     -0.008665     -1.324424
  C       2.612456     -0.236059     -2.028839
  S       0.912432      0.337155     -3.862316
  C       2.503402     -0.079299     -3.374706
  H       1.597396      1.140726     -0.743183
  H       3.553499     -0.443379     -1.539699
  H       3.284373     -0.163726     -4.115081
  H      -0.526345     -3.314531     -0.366867
  H      -1.022524     -2.498633      2.184508
  H       1.248935     -1.507957      3.171282
  O       1.694542      2.347955      0.014430
  O       0.615873      1.036846      1.456309
  C       1.142268      2.140662      1.112320
  C       1.109929      3.249181      2.124647
  H       1.013647      4.215430      1.635511
  H       2.054605      3.254275      2.671290
  H       0.306281      3.110346      2.842552
  H       3.195951     -1.814522      1.341785
  H       2.064857     -2.908151     -0.872511
39
Coordinates from ORCA-job reaction4-IEIP_ts_guess_scan_14-5_orca E -1288.395299529117
  Ir      0.625643     -0.733483      0.380654
  C       0.185725     -2.859060      0.306514
  C      -0.082178     -2.435345      1.658296
  C       2.151574     -2.045895      1.205445
  C       1.561623     -2.653918      0.049551
  C       1.124340     -1.952009      2.194584
  N      -1.078939      0.114514     -0.510389
  C      -2.339452      0.305241      0.220262
  C      -3.127881      1.528334     -0.225094
  H      -3.952612      1.686762      0.467887
  H      -3.570954      1.411017     -1.214999
  H      -2.516490      2.431006     -0.218654
  C      -3.174244     -0.967047      0.119085
  H      -2.044122      0.451215      1.260431
  H      -4.067069     -0.875664      0.736299
  H      -3.495045     -1.145299     -0.908054
  H      -2.625994     -1.843780      0.459999
  C      -0.939317      0.487001     -1.730198
  C       0.375930      0.298340     -2.259140
  H      -1.745484      0.938898     -2.298140
  C       1.378717     -0.010801     -1.325397
  C       2.611918     -0.236384     -2.029817
  S       0.911319      0.336177     -3.862845
  C       2.502581     -0.078787     -3.375671
  H       1.596522      1.139130     -0.744338
  H       3.553117     -0.443456     -1.540872
  H       3.283572     -0.161835     -4.116179
  H      -0.519901     -3.315837     -0.371816
  H      -1.025363     -2.501757      2.178409
  H       1.241592     -1.509553      3.173634
  O       1.691474      2.347794      0.011261
  O       0.616612      1.036794      1.456088
  C       1.141228      2.140929      1.110284
  C       1.109597      3.250086      2.121874
  H       1.014064      4.216097      1.632151
  H       2.054156      3.254624      2.668729
  H       0.305781      3.112240      2.839790
  H       3.194931     -1.811980      1.349872
  H       2.072398     -2.905118     -0.868757
39
Coordinates from ORCA-job reaction4-IEIP_ts_guess_scan_14-5_orca E -1288.395299679519
  Ir      0.625874     -0.733846      0.380726
  C       0.186374     -2.859190      0.306011
  C      -0.082329     -2.435608      1.657699
  C       2.151652     -2.045944      1.206332
  C       1.562468     -2.653865      0.049974
  C       1.123830     -1.952253      2.194837
  N      -1.078773      0.114031     -0.510102
  C      -2.339073      0.304983      0.220939
  C      -3.126613      1.529048     -0.223371
  H      -3.951036      1.687595      0.469967
  H      -3.570026      1.412950     -1.213264
  H      -2.514513      2.431233     -0.216322
  C      -3.174695     -0.966646      0.118684
  H      -2.043553      0.450017      1.261159
  H      -4.067367     -0.875256      0.736130
  H      -3.495820     -1.143745     -0.908549
  H      -2.626980     -1.844093      0.458660
  C      -0.939490      0.486192     -1.730131
  C       0.375751      0.297283     -2.259109
  H      -1.745824      0.937676     -2.298148
  C       1.378785     -0.011750     -1.325645
  C       2.612052     -0.236406     -2.030031
  S       0.911300      0.335986     -3.862838
  C       2.502570     -0.078293     -3.375911
  H       1.596710      1.138158     -0.744395
  H       3.553305     -0.443501     -1.541210
  H       3.283609     -0.160663     -4.116446
  H      -0.518776     -3.315932     -0.372836
  H      -1.025893     -2.501972      2.177144
  H       1.240488     -1.510010      3.174052
  O       1.690938      2.347333      0.010478
  O       0.616326      1.036737      1.455829
  C       1.140584      2.140961      1.109510
  C       1.108482      3.250426      2.120691
  H       1.013891      4.216329      1.630578
  H       2.052499      3.254555      2.668489
  H       0.303930      3.113195      2.837898
  H       3.194886     -1.811866      1.351382
  H       2.073823     -2.904657     -0.868122
