! Opt PBEh-3c
%geom Constraints
{ B 0 20 2.257142857142857 C }
{ B 24 30 1.4857142857142858 C }
    end
end
%output 
xyzfile=True 
end 
%scf 
maxiter 250 
end
%output
Print[P_Hirshfeld] = 1
end
% maxcore
4000
*xyz 1 1
Ir   0.61883833  -0.70571148   0.41850781 
C    0.07569259  -2.80186947   0.34167961 
C    0.11420647  -2.34193332   1.70501466 
C    2.22476705  -2.10609778   0.80442445 
C    1.35689159  -2.64145092  -0.21938996 
C    1.46387050  -1.95412776   1.98067859 
N   -1.04674753   0.16290821  -0.52970729 
C   -2.30940158   0.46876751   0.15948701 
C   -3.10742930   1.58189638  -0.50066984 
H   -3.92967610   1.86313422   0.15589348 
H   -3.55690556   1.27896498  -1.44760863 
H   -2.50352813   2.47461414  -0.66553014 
C   -3.13078448  -0.80724152   0.30247883 
H   -2.00794201   0.80165884   1.15369778 
H   -4.03555639  -0.59759966   0.87104747 
H   -3.43123734  -1.19642527  -0.67116660 
H   -2.58583254  -1.58586598   0.83417556 
C   -0.87218495   0.38612301  -1.77544774 
C    0.47045816   0.16318050  -2.25576234 
H   -1.66190782   0.75669396  -2.42195896 
C    1.55195940   0.35610968  -1.39582977 
C    2.76668753  -0.02946690  -2.03948640 
S    0.92278674  -0.46008312  -3.76832918 
C    2.57802527  -0.48514110  -3.30537972 
H    1.52047506   1.28646944  -0.67113066 
H    3.74359680   0.08042454  -1.59157249 
H    3.32443018  -0.81291440  -4.01300465 
H   -0.79488918  -3.18040848  -0.17449040 
H   -0.69575676  -2.37049013   2.41846550 
H    1.81906807  -1.53970694   2.91333935 
O    1.33333459   2.47652888   0.22259019 
O    0.53602748   0.93788321   1.62484338 
C    0.91639616   2.13369063   1.32701956 
C    0.84971664   3.11416011   2.46506030 
H    0.81652276   4.13451678   2.09313711 
H    1.74791852   3.01009144   3.07684439 
H   -0.00455536   2.92438121   3.11156240 
H    3.27619584  -1.88605050   0.69709371 
H    1.64583933  -2.89042299  -1.22983629 
*
