39
Coordinates from ORCA-job reaction4-IEIP_ts_guess_scan_5-1_orca E -1288.400066709514
  Ir      0.604198     -0.707413      0.415811
  C       0.055921     -2.794970      0.321316
  C       0.142330     -2.340278      1.687108
  C       2.221612     -2.113600      0.721928
  C       1.317327     -2.632804     -0.279400
  C       1.507450     -1.971218      1.925365
  N      -1.052918      0.178099     -0.530114
  C      -2.316179      0.505760      0.147950
  C      -3.130855      1.570969     -0.567691
  H      -3.955043      1.874952      0.076166
  H      -3.578758      1.212846     -1.496132
  H      -2.541082      2.463023     -0.781016
  C      -3.122098     -0.768983      0.366172
  H      -2.013430      0.897066      1.120476
  H      -4.028779     -0.536172      0.922479
  H      -3.419420     -1.217579     -0.582609
  H      -2.569858     -1.509188      0.943452
  C      -0.857395      0.384336     -1.772384
  C       0.495312      0.142853     -2.224182
  H      -1.631826      0.750999     -2.439817
  C       1.584591      0.461450     -1.418371
  C       2.798175      0.032154     -2.032288
  S       0.942596     -0.631168     -3.674095
  C       2.603700     -0.565992     -3.236709
  H       1.514216      1.351236     -0.670170
  H       3.777613      0.211707     -1.613180
  H       3.349099     -0.954383     -3.914221
  H      -0.834552     -3.163092     -0.167763
  H      -0.643041     -2.372153      2.427862
  H       1.897054     -1.570111      2.850021
  O       1.281735      2.494423      0.249842
  O       0.541026      0.914391      1.640122
  C       0.894544      2.125539      1.353488
  C       0.828922      3.079426      2.514496
  H       0.776674      4.106718      2.164333
  H       1.735965      2.975815      3.113236
  H      -0.014174      2.865019      3.168148
  H       3.266536     -1.885020      0.574098
  H       1.572182     -2.865464     -1.302988
39
Coordinates from ORCA-job reaction4-IEIP_ts_guess_scan_5-1_orca E -1288.399150309822
  Ir      0.607957     -0.695319      0.408311
  C       0.073385     -2.787394      0.298671
  C       0.149913     -2.342784      1.668096
  C       2.232387     -2.094465      0.715097
  C       1.336800     -2.612966     -0.294305
  C       1.510765     -1.964880      1.915607
  N      -1.058983      0.183931     -0.534905
  C      -2.318884      0.516223      0.145954
  C      -3.139038      1.571029     -0.578706
  H      -3.961376      1.880676      0.064808
  H      -3.589608      1.200799     -1.501113
  H      -2.552241      2.461864     -0.804982
  C      -3.120144     -0.758072      0.382767
  H      -2.011970      0.919265      1.112375
  H      -4.024367     -0.521449      0.941443
  H      -3.421423     -1.218005     -0.559301
  H      -2.562519     -1.490236      0.965174
  C      -0.870867      0.374759     -1.781811
  C       0.481483      0.129673     -2.232819
  H      -1.649144      0.729107     -2.451383
  C       1.567901      0.477287     -1.434278
  C       2.782688      0.029879     -2.034546
  S       0.930975     -0.690754     -3.655881
  C       2.590854     -0.611259     -3.216743
  H       1.499681      1.419658     -0.743777
  H       3.761845      0.231134     -1.624838
  H       3.338072     -1.018841     -3.880739
  H      -0.811958     -3.158393     -0.197459
  H      -0.638682     -2.386172      2.404757
  H       1.892772     -1.567660      2.845083
  O       1.384578      2.466182      0.304501
  O       0.520645      0.914345      1.647999
  C       0.923662      2.113853      1.385635
  C       0.821657      3.071259      2.540968
  H       0.820483      4.099148      2.188566
  H       1.689873      2.941141      3.189937
  H      -0.063143      2.883489      3.145755
  H       3.276700     -1.858934      0.574633
  H       1.598642     -2.837928     -1.317814
39
Coordinates from ORCA-job reaction4-IEIP_ts_guess_scan_5-1_orca E -1288.400156358573
  Ir      0.610505     -0.711211      0.418766
  C       0.056446     -2.800006      0.327345
  C       0.138160     -2.346208      1.693324
  C       2.222037     -2.122955      0.736227
  C       1.321053     -2.641479     -0.268266
  C       1.502210     -1.977772      1.936345
  N      -1.048513      0.178777     -0.527799
  C      -2.310321      0.506730      0.150800
  C      -3.122646      1.573429     -0.565215
  H      -3.947684      1.877910      0.077294
  H      -3.568939      1.216291     -1.494854
  H      -2.531499      2.464975     -0.776945
  C      -3.116857     -0.767847      0.367078
  H      -2.006859      0.896205      1.123845
  H      -4.022959     -0.535529      0.924499
  H      -3.415095     -1.214421     -0.582355
  H      -2.564242     -1.509330      0.942466
  C      -0.854272      0.392717     -1.771331
  C       0.497764      0.153148     -2.231282
  H      -1.629812      0.766599     -2.433387
  C       1.589984      0.451891     -1.419562
  C       2.799353      0.024753     -2.046381
  S       0.936418     -0.608903     -3.689703
  C       2.598868     -0.558155     -3.256361
  H       1.536664      1.364044     -0.685069
  H       3.781494      0.198937     -1.631437
  H       3.340590     -0.939480     -3.941732
  H      -0.832584     -3.167128     -0.165057
  H      -0.649887     -2.377483      2.431134
  H       1.888470     -1.576826      2.862447
  O       1.255248      2.487627      0.245368
  O       0.537128      0.911196      1.646726
  C       0.882516      2.122094      1.355912
  C       0.816663      3.082036      2.511633
  H       0.753447      4.106952      2.156225
  H       1.728423      2.989346      3.104875
  H      -0.020341      2.864047      3.171726
  H       3.268399     -1.898406      0.593449
  H       1.580044     -2.877375     -1.290007
39
Coordinates from ORCA-job reaction4-IEIP_ts_guess_scan_5-1_orca E -1288.398956370666
  Ir      0.594778     -0.714042      0.426751
  C       0.034528     -2.801465      0.372594
  C       0.116141     -2.323255      1.729872
  C       2.201549     -2.123631      0.770959
  C       1.300045     -2.657784     -0.224541
  C       1.480807     -1.954673      1.967445
  N      -1.059951      0.159159     -0.538261
  C      -2.326640      0.480711      0.135617
  C      -3.144389      1.541896     -0.582533
  H      -3.972774      1.841283      0.058086
  H      -3.586618      1.181542     -1.512829
  H      -2.558551      2.437159     -0.793274
  C      -3.126536     -0.798313      0.351020
  H      -2.028830      0.872851      1.109290
  H      -4.035637     -0.570740      0.905555
  H      -3.419337     -1.247647     -0.598802
  H      -2.571303     -1.535887      0.928741
  C      -0.866493      0.374612     -1.781040
  C       0.486779      0.157747     -2.246987
  H      -1.644657      0.749785     -2.439065
  C       1.575785      0.429122     -1.423231
  C       2.792364      0.062895     -2.073431
  S       0.935215     -0.517597     -3.744071
  C       2.599322     -0.450625     -3.316007
  H       1.497294      1.271978     -0.617549
  H       3.771667      0.224179     -1.646549
  H       3.345753     -0.780699     -4.022650
  H      -0.855177     -3.174539     -0.114084
  H      -0.672891     -2.338220      2.467127
  H       1.867270     -1.537888      2.886450
  O       1.485818      2.446497      0.292243
  O       0.528818      0.931945      1.625305
  C       0.975290      2.116107      1.358854
  C       0.872954      3.086615      2.502870
  H       0.916871      4.110741      2.142429
  H       1.717119      2.933068      3.177942
  H      -0.034919      2.934014      3.082898
  H       3.248783     -1.904760      0.625215
  H       1.559127     -2.912950     -1.241621
39
Coordinates from ORCA-job reaction4-IEIP_ts_guess_scan_5-1_orca E -1288.400224812645
  Ir      0.603489     -0.705663      0.421230
  C       0.053258     -2.795125      0.339578
  C       0.130875     -2.334597      1.703165
  C       2.216504     -2.112161      0.749342
  C       1.318869     -2.637279     -0.254412
  C       1.493366     -1.962217      1.947069
  N      -1.052719      0.175072     -0.530874
  C      -2.318645      0.494403      0.145517
  C      -3.135815      1.560018     -0.566768
  H      -3.963531      1.856951      0.075850
  H      -3.578940      1.204792     -1.498612
  H      -2.549365      2.455841     -0.773383
  C      -3.120084     -0.784657      0.355010
  H      -2.019707      0.881369      1.120970
  H      -4.028600     -0.558697      0.911173
  H      -3.413993     -1.228890     -0.596869
  H      -2.565497     -1.525772      0.928749
  C      -0.857678      0.393987     -1.773116
  C       0.493162      0.160570     -2.237920
  H      -1.634954      0.767147     -2.433320
  C       1.587355      0.443162     -1.423720
  C       2.795168      0.020860     -2.055701
  S       0.929984     -0.566918     -3.713816
  C       2.592492     -0.536123     -3.277593
  H       1.537929      1.338401     -0.669135
  H       3.777494      0.177454     -1.634123
  H       3.332430     -0.910603     -3.968652
  H      -0.834025     -3.166118     -0.153044
  H      -0.658891     -2.363236      2.439205
  H       1.876706     -1.555618      2.871916
  O       1.348889      2.476448      0.267059
  O       0.526596      0.923117      1.639278
  C       0.917955      2.122996      1.360728
  C       0.839006      3.085240      2.513558
  H       0.822315      4.111432      2.156736
  H       1.723946      2.963611      3.141192
  H      -0.029288      2.894402      3.140871
  H       3.262890     -1.886584      0.608002
  H       1.580422     -2.877825     -1.274402
39
Coordinates from ORCA-job reaction4-IEIP_ts_guess_scan_5-1_orca E -1288.400224624610
  Ir      0.607509     -0.711247      0.422430
  C       0.052454     -2.799685      0.339497
  C       0.128615     -2.340248      1.703408
  C       2.216546     -2.122040      0.753455
  C       1.319447     -2.644523     -0.252242
  C       1.491404     -1.970711      1.949793
  N      -1.049125      0.174346     -0.531138
  C      -2.313428      0.498132      0.146137
  C      -3.127668      1.566187     -0.565816
  H      -3.953865      1.865962      0.077422
  H      -3.572719      1.212189     -1.497198
  H      -2.538544      2.460084     -0.773129
  C      -3.119141     -0.778080      0.356646
  H      -2.012405      0.884600      1.121169
  H      -4.026549     -0.548676      0.913180
  H      -3.415085     -1.221725     -0.594867
  H      -2.566828     -1.520839      0.930393
  C      -0.856807      0.387311     -1.774880
  C       0.493389      0.153911     -2.238196
  H      -1.635033      0.757291     -2.435848
  C       1.584294      0.443442     -1.422623
  C       2.795296      0.031894     -2.055463
  S       0.933053     -0.592045     -3.703705
  C       2.596770     -0.528960     -3.276504
  H       1.529631      1.350562     -0.680689
  H       3.776701      0.203290     -1.637554
  H       3.339750     -0.893783     -3.969453
  H      -0.834715     -3.168459     -0.155007
  H      -0.662540     -2.367591      2.437997
  H       1.873995     -1.565381      2.875510
  O       1.303427      2.483678      0.253241
  O       0.532250      0.918084      1.641729
  C       0.901783      2.122919      1.355861
  C       0.837411      3.082910      2.511389
  H       0.799308      4.109225      2.156587
  H       1.738236      2.971833      3.118058
  H      -0.013500      2.880169      3.158490
  H       3.263851     -1.899355      0.614466
  H       1.582203     -2.885482     -1.271807
39
Coordinates from ORCA-job reaction4-IEIP_ts_guess_scan_5-1_orca E -1288.400255710021
  Ir      0.607030     -0.710043      0.422142
  C       0.053935     -2.798680      0.338845
  C       0.129333     -2.339438      1.702788
  C       2.217309     -2.119088      0.753254
  C       1.320927     -2.642263     -0.252666
  C       1.491651     -1.968605      1.949452
  N      -1.049445      0.173583     -0.531127
  C      -2.313813      0.496245      0.146716
  C      -3.127957      1.565741     -0.563187
  H      -3.953959      1.864525      0.080770
  H      -3.573308      1.213546     -1.495104
  H      -2.538662      2.459868     -0.769004
  C      -3.119819     -0.780194      0.354925
  H      -2.012827      0.880954      1.122438
  H      -4.027231     -0.551584      0.911780
  H      -3.415762     -1.222107     -0.597396
  H      -2.567730     -1.524104      0.927398
  C      -0.857716      0.387745     -1.774689
  C       0.492428      0.156719     -2.239480
  H      -1.636548      0.758321     -2.434608
  C       1.583659      0.443686     -1.423593
  C       2.794345      0.028003     -2.054139
  S       0.933233     -0.574693     -3.711782
  C       2.595370     -0.533107     -3.275070
  H       1.529487      1.347377     -0.677666
  H       3.775493      0.191166     -1.632355
  H       3.337769     -0.904285     -3.965276
  H      -0.832784     -3.168126     -0.155979
  H      -0.662029     -2.367425      2.437122
  H       1.873635     -1.562941      2.875276
  O       1.310087      2.483775      0.253897
  O       0.531923      0.919471      1.640455
  C       0.904567      2.123484      1.355335
  C       0.837182      3.084249      2.510064
  H       0.801313      4.110410      2.154598
  H       1.735857      2.972560      3.119812
  H      -0.016109      2.882716      3.154424
  H       3.264470     -1.895468      0.614608
  H       1.584067     -2.882802     -1.272237
39
Coordinates from ORCA-job reaction4-IEIP_ts_guess_scan_5-1_orca E -1288.400262927311
  Ir      0.605781     -0.709032      0.424112
  C       0.054694     -2.797857      0.339151
  C       0.128051     -2.339367      1.703403
  C       2.216996     -2.116457      0.756363
  C       1.322287     -2.639973     -0.250833
  C       1.489656     -1.967286      1.951791
  N      -1.049418      0.172803     -0.529830
  C      -2.314279      0.494514      0.147613
  C      -3.127340      1.565796     -0.560882
  H      -3.953567      1.863902      0.083110
  H      -3.572342      1.215608     -1.493719
  H      -2.537310      2.459895     -0.764709
  C      -3.120963     -0.782037      0.352620
  H      -2.014037      0.877220      1.124320
  H      -4.028762     -0.554225      0.909176
  H      -3.416249     -1.221933     -0.600841
  H      -2.569609     -1.527349      0.924021
  C      -0.857661      0.387347     -1.773381
  C       0.492028      0.155850     -2.239812
  H      -1.637119      0.757258     -2.432934
  C       1.584469      0.439210     -1.423953
  C       2.794421      0.024830     -2.056663
  S       0.931399     -0.571072     -3.714650
  C       2.594209     -0.529389     -3.280563
  H       1.531344      1.340859     -0.675167
  H       3.775961      0.185315     -1.634808
  H       3.335822     -0.897287     -3.973369
  H      -0.831089     -3.167786     -0.156997
  H      -0.664227     -2.368252      2.436701
  H       1.870142     -1.561627      2.878240
  O       1.319545      2.479193      0.255792
  O       0.530241      0.920316      1.641447
  C       0.907756      2.122543      1.356128
  C       0.837568      3.086102      2.508440
  H       0.806108      4.111574      2.150598
  H       1.733132      2.973326      3.122563
  H      -0.019208      2.888282      3.149321
  H       3.264154     -1.891900      0.619184
  H       1.586783     -2.879720     -1.270243
39
Coordinates from ORCA-job reaction4-IEIP_ts_guess_scan_5-1_orca E -1288.400269499680
  Ir      0.606126     -0.709480      0.425589
  C       0.055272     -2.798314      0.339766
  C       0.126803     -2.340158      1.704192
  C       2.217055     -2.116788      0.759899
  C       1.323641     -2.640250     -0.248527
  C       1.487995     -1.967829      1.954355
  N      -1.049024      0.171956     -0.529443
  C      -2.314116      0.492877      0.148082
  C      -3.125744      1.566904     -0.557966
  H      -3.951884      1.864247      0.086496
  H      -3.570810      1.219686     -1.491870
  H      -2.534573      2.460813     -0.759257
  C      -3.121977     -0.783600      0.348908
  H      -2.014309      0.872636      1.126051
  H      -4.029948     -0.556670      0.905542
  H      -3.416972     -1.220513     -0.606013
  H      -2.571550     -1.531043      0.918440
  C      -0.858228      0.386084     -1.773309
  C       0.490998      0.155675     -2.240895
  H      -1.638703      0.754710     -2.432381
  C       1.583232      0.437384     -1.424168
  C       2.793452      0.024937     -2.057337
  S       0.930910     -0.568122     -3.716955
  C       2.593558     -0.526882     -3.282472
  H       1.529563      1.339790     -0.675792
  H       3.774852      0.184733     -1.634929
  H       3.335362     -0.892999     -3.976014
  H      -0.829780     -3.168236     -0.157705
  H      -0.666497     -2.369111      2.436376
  H       1.867224     -1.562215      2.881346
  O       1.317365      2.479211      0.253745
  O       0.531477      0.921153      1.642263
  C       0.907351      2.123324      1.355080
  C       0.839528      3.087975      2.506614
  H       0.806586      4.113090      2.147910
  H       1.736743      2.976255      3.118527
  H      -0.015467      2.890246      3.149894
  H       3.264461     -1.892416      0.624339
  H       1.589398     -2.879869     -1.267642
39
Coordinates from ORCA-job reaction4-IEIP_ts_guess_scan_5-1_orca E -1288.400281195461
  Ir      0.607287     -0.710594      0.429400
  C       0.057907     -2.799539      0.339828
  C       0.123627     -2.342810      1.704962
  C       2.217763     -2.116989      0.769326
  C       1.328561     -2.640119     -0.243104
  C       1.483432     -1.969507      1.960855
  N      -1.047168      0.169428     -0.527680
  C      -2.312340      0.489068      0.150714
  C      -3.119185      1.571887     -0.547529
  H      -3.944354      1.867826      0.098841
  H      -3.565375      1.233814     -1.484205
  H      -2.523841      2.464542     -0.741796
  C      -3.124529     -0.786512      0.339580
  H      -2.012973      0.859760      1.132261
  H      -4.032477     -0.561619      0.897086
  H      -3.419598     -1.214278     -0.619444
  H      -2.576976     -1.540649      0.903065
  C      -0.859419      0.381751     -1.772470
  C       0.488378      0.153972     -2.243359
  H      -1.642731      0.747061     -2.430036
  C       1.580499      0.431883     -1.425118
  C       2.791070      0.024120     -2.059788
  S       0.929091     -0.561912     -3.722675
  C       2.591389     -0.522193     -3.287710
  H       1.525622      1.336265     -0.677800
  H       3.772338      0.182228     -1.636505
  H       3.333334     -0.884281     -3.983223
  H      -0.824720     -3.169605     -0.161837
  H      -0.672822     -2.372531      2.433684
  H       1.858629     -1.564325      2.889687
  O       1.311389      2.478467      0.247849
  O       0.534751      0.922208      1.643819
  C       0.907407      2.124007      1.352107
  C       0.840248      3.092696      2.500217
  H       0.801213      4.116320      2.137929
  H       1.740755      2.987090      3.108375
  H      -0.010910      2.893517      3.148122
  H       3.265802     -1.892650      0.638759
  H       1.598295     -2.878606     -1.261447
39
Coordinates from ORCA-job reaction4-IEIP_ts_guess_scan_5-1_orca E -1288.400281945404
  Ir      0.607100     -0.710053      0.430299
  C       0.059437     -2.799427      0.339337
  C       0.122750     -2.342893      1.704686
  C       2.218167     -2.115216      0.772305
  C       1.330826     -2.638810     -0.241539
  C       1.481878     -1.968652      1.962761
  N      -1.047246      0.168654     -0.527058
  C      -2.312619      0.487500      0.151439
  C      -3.117923      1.573060     -0.544352
  H      -3.942970      1.868430      0.102435
  H      -3.564175      1.237863     -1.482018
  H      -2.521241      2.465328     -0.736208
  C      -3.125876     -0.788045      0.336048
  H      -2.013681      0.855102      1.134268
  H      -4.033909     -0.564290      0.893886
  H      -3.420804     -1.212670     -0.624414
  H      -2.578986     -1.544307      0.897330
  C      -0.860093      0.380630     -1.772006
  C       0.487469      0.153470     -2.243609
  H      -1.644089      0.745093     -2.429242
  C       1.579938      0.430680     -1.425488
  C       2.790252      0.022954     -2.060483
  S       0.927955     -0.560790     -3.723784
  C       2.590196     -0.522152     -3.288930
  H       1.525370      1.335064     -0.677945
  H       3.771657      0.180261     -1.637220
  H       3.331903     -0.883983     -3.984838
  H      -0.822071     -3.170175     -0.163778
  H      -0.674829     -2.373295      2.432144
  H       1.855351     -1.563409      2.892263
  O       1.311058      2.478133      0.246615
  O       0.534185      0.923105      1.643753
  C       0.905580      2.124975      1.350750
  C       0.841852      3.093764      2.498961
  H       0.803431      4.117395      2.136634
  H       1.743388      2.987137      3.105431
  H      -0.008326      2.895655      3.148454
  H       3.266278     -1.890225      0.643459
  H       1.602189     -2.876673     -1.259601
