39
Generated by autodE on: 2023-08-13. E = -1288.398982 Ha
Ir    0.59530  -0.71720   0.44765
C     0.04467  -2.80201   0.34001
C     0.12156  -2.34896   1.70756
C     2.20868  -2.12641   0.76037
C     1.31065  -2.63976  -0.24975
C     1.48683  -1.98634   1.95884
N    -1.04543   0.17177  -0.52143
C    -2.31405   0.49938   0.14741
C    -3.12306   1.56531  -0.57366
H    -3.95067   1.87083   0.06504
H    -3.56580   1.20728  -1.50457
H    -2.53064   2.45626  -0.78414
C    -3.12205  -0.77511   0.35924
H    -2.01889   0.89032   1.12247
H    -4.03326  -0.54236   0.90813
H    -3.41165  -1.22382  -0.59188
H    -2.57468  -1.51538   0.94111
C    -0.84672   0.37843  -1.76504
C     0.50409   0.14974  -2.23201
H    -1.62640   0.74036  -2.42911
C     1.60669   0.49144  -1.45609
C     2.81103   0.07011  -2.09139
S     0.93049  -0.62798  -3.68904
C     2.59840  -0.53961  -3.28719
H     1.53671   1.37243  -0.68653
H     3.79720   0.26349  -1.69499
H     3.33446  -0.92465  -3.97664
H    -0.84282  -3.16698  -0.15670
H    -0.66965  -2.38152   2.44213
H     1.87051  -1.59024   2.88808
O     1.29920   2.47178   0.26221
O     0.53562   0.91088   1.66136
C     0.90072   2.11625   1.36698
C     0.83568   3.08159   2.51789
H     0.78860   4.10554   2.15735
H     1.74097   2.98056   3.11971
H    -0.00988   2.87678   3.17129
H     3.25436  -1.89691   0.61915
H     1.57262  -2.86608  -1.27305
