! Opt PBEh-3c
%geom Constraints
{ B 0 20 2.257142857142857 C }
{ B 24 30 1.3714285714285714 C }
    end
end
%output 
xyzfile=True 
end 
%scf 
maxiter 250 
end
%output
Print[P_Hirshfeld] = 1
end
% maxcore
4000
*xyz 1 1
Ir   0.60975468  -0.72568996   0.46019636 
C    0.07977620  -2.82316123   0.36861564 
C    0.01635607  -2.35729537   1.72881698 
C    2.18933871  -2.11501577   0.98335774 
C    1.40034452  -2.66161324  -0.09497082 
C    1.33741234  -1.95858629   2.09763577 
N   -1.04485116   0.13063957  -0.51436096 
C   -2.31870428   0.39252749   0.17544790 
C   -3.10412711   1.55513931  -0.41334666 
H   -3.93220996   1.79415912   0.25247852 
H   -3.54417282   1.32176194  -1.38381569 
H   -2.49366890   2.45321552  -0.51011793 
C   -3.15044409  -0.88455065   0.21070124 
H   -2.03590109   0.65328888   1.19630483 
H   -4.06104392  -0.71556128   0.78379740 
H   -3.44156958  -1.19382214  -0.79398450 
H   -2.61609255  -1.70764131   0.68251173 
C   -0.88007032   0.39494158  -1.75650067 
C    0.45014345   0.21681805  -2.27236449 
H   -1.68803233   0.77044008  -2.37729389 
C    1.53277112   0.26394028  -1.39955433 
C    2.73850788  -0.04319895  -2.09409260 
S    0.89155485  -0.16369828  -3.86951510 
C    2.54146634  -0.28778974  -3.41889065 
H    1.55557802   1.23318227  -0.60812517 
H    3.71832285  -0.02678649  -1.63947297 
H    3.28436152  -0.51330272  -4.16889116 
H   -0.74649956  -3.21336915  -0.20799067 
H   -0.84260514  -2.38834498   2.38218005 
H    1.61990065  -1.53469483   3.05090086 
O    1.51408985   2.37400284   0.17737546 
O    0.54568747   0.97156573   1.61063814 
C    1.01322467   2.11646432   1.28089457 
C    0.95765475   3.17426627   2.34444221 
H    0.94025313   4.16731084   1.90351578 
H    1.85536040   3.10076325   2.96129973 
H    0.09952220   3.03873030   2.99848852 
H    3.24641058  -1.89872335   0.95625274 
H    1.76157062  -2.91112189  -1.08182387 
*
