39
Generated by autodE on: 2023-08-15. E = -1288.396841 Ha
Ir    0.59017  -0.74714   0.51641
C     0.06071  -2.83526   0.40070
C    -0.03841  -2.36525   1.75894
C     2.15678  -2.13856   1.07749
C     1.39427  -2.67647  -0.02409
C     1.27693  -1.97861   2.16719
N    -1.03513   0.11316  -0.49601
C    -2.32319   0.36053   0.17587
C    -3.09645   1.53770  -0.40152
H    -3.93276   1.76751   0.25724
H    -3.52372   1.32551  -1.38244
H    -2.48108   2.43472  -0.47347
C    -3.15855  -0.91432   0.16597
H    -2.06269   0.60090   1.20765
H    -4.08138  -0.75723   0.72285
H    -3.42850  -1.20009  -0.85158
H    -2.63667  -1.75025   0.62910
C    -0.86372   0.38343  -1.73730
C     0.46026   0.23547  -2.27357
H    -1.68085   0.74546  -2.35490
C     1.57166   0.29305  -1.44640
C     2.75479   0.01586  -2.18230
S     0.85514  -0.09395  -3.90231
C     2.51667  -0.19837  -3.50848
H     1.61055   1.25723  -0.56097
H     3.74962   0.03267  -1.76158
H     3.23933  -0.39425  -4.28623
H    -0.74994  -3.22206  -0.19970
H    -0.91428  -2.39537   2.38979
H     1.53541  -1.55859   3.12898
O     1.59521   2.31696   0.19186
O     0.54472   0.97749   1.62928
C     1.05179   2.09713   1.28976
C     1.00384   3.18846   2.31663
H     0.95064   4.16452   1.84118
H     1.92391   3.15937   2.90352
H     0.16958   3.05723   3.00088
H     3.21400  -1.92123   1.07572
H     1.78075  -2.91814  -1.00340
