39
Coordinates from ORCA-job reaction4-IEIP_ts_guess_scan_2-14_orca E -1288.392975284380
  Ir      0.571784     -0.739971      0.518351
  C       0.024067     -2.818807      0.386151
  C       0.038709     -2.367669      1.755791
  C       2.170506     -2.149509      0.907386
  C       1.317038     -2.655502     -0.144330
  C       1.392370     -2.009170      2.070464
  N      -1.039019      0.134687     -0.499416
  C      -2.326720      0.426278      0.155533
  C      -3.110685      1.545008     -0.513553
  H      -3.945915      1.822772      0.127993
  H      -3.541353      1.249358     -1.471299
  H      -2.502974      2.437963     -0.661715
  C      -3.151841     -0.850787      0.260947
  H      -2.060780      0.752064      1.162535
  H      -4.078382     -0.646502      0.795645
  H      -3.414765     -1.234683     -0.725685
  H      -2.628181     -1.633117      0.808326
  C      -0.843746      0.354118     -1.742747
  C       0.496007      0.181501     -2.237909
  H      -1.644708      0.691231     -2.395165
  C       1.606500      0.438984     -1.446607
  C       2.798572      0.100536     -2.143553
  S       0.902377     -0.390302     -3.798797
  C       2.570032     -0.347258     -3.410114
  H       1.559675      1.351204     -0.574532
  H       3.792241      0.239012     -1.742607
  H       3.299786     -0.636262     -4.151550
  H      -0.838770     -3.183229     -0.152538
  H      -0.785755     -2.401673      2.452805
  H       1.733094     -1.616871      3.017984
  O       1.450338      2.368491      0.227448
  O       0.542997      0.942243      1.671045
  C       0.984315      2.097185      1.338886
  C       0.944692      3.141678      2.415303
  H       0.887508      4.138100      1.985312
  H       1.868024      3.085100      2.995338
  H       0.116672      2.980273      3.101424
  H       3.222242     -1.923003      0.815116
  H       1.623418     -2.874281     -1.156925
39
Coordinates from ORCA-job reaction4-IEIP_ts_guess_scan_2-14_orca E -1288.393117287239
  Ir      0.574368     -0.740993      0.518562
  C       0.022920     -2.820285      0.390877
  C       0.036184     -2.367946      1.759850
  C       2.169419     -2.153200      0.913925
  C       1.316813     -2.659982     -0.137946
  C       1.389468     -2.009749      2.075417
  N      -1.039352      0.134463     -0.501581
  C      -2.326216      0.425015      0.153947
  C      -3.111534      1.541301     -0.517494
  H      -3.947819      1.818582      0.122872
  H      -3.540644      1.243322     -1.475253
  H      -2.505320      2.435137     -0.666549
  C      -3.148811     -0.853411      0.261539
  H      -2.059928      0.752629      1.160261
  H      -4.075149     -0.650173      0.796961
  H      -3.412024     -1.238867     -0.724399
  H      -2.623045     -1.634129      0.809260
  C      -0.846114      0.357173     -1.747185
  C       0.494235      0.190602     -2.247689
  H      -1.648640      0.697549     -2.395998
  C       1.603282      0.435823     -1.450720
  C       2.795706      0.096122     -2.147053
  S       0.901605     -0.371538     -3.811495
  C       2.568577     -0.340402     -3.417724
  H       1.558913      1.356693     -0.574800
  H       3.788957      0.227196     -1.742551
  H       3.298913     -0.626770     -4.159509
  H      -0.839566     -3.184558     -0.148491
  H      -0.789057     -2.400586      2.455900
  H       1.729308     -1.616363      3.022787
  O       1.454794      2.374160      0.227647
  O       0.542823      0.944383      1.672614
  C       0.987271      2.099594      1.341030
  C       0.948555      3.142963      2.418321
  H       0.892482      4.139945      1.989371
  H       1.871675      3.084700      2.998487
  H       0.120172      2.981570      3.103917
  H       3.221763     -1.929156      0.823182
  H       1.624387     -2.881624     -1.149549
39
Coordinates from ORCA-job reaction4-IEIP_ts_guess_scan_2-14_orca E -1288.393183590319
  Ir      0.573728     -0.741720      0.519893
  C       0.017842     -2.820609      0.399568
  C       0.027540     -2.365490      1.767056
  C       2.163659     -2.155698      0.926336
  C       1.313631     -2.664583     -0.126112
  C       1.379660     -2.007092      2.084768
  N      -1.036442      0.131448     -0.502545
  C      -2.323485      0.420739      0.152921
  C      -3.111047      1.535858     -0.517938
  H      -3.947829      1.811418      0.122556
  H      -3.539750      1.237440     -1.475714
  H      -2.506587      2.430928     -0.666713
  C      -3.144720     -0.858510      0.261636
  H      -2.056990      0.748801      1.159068
  H      -4.070731     -0.656206      0.798046
  H      -3.408498     -1.244361     -0.723975
  H      -2.617467     -1.638449      0.808877
  C      -0.843940      0.358736     -1.748678
  C       0.495613      0.196027     -2.255764
  H      -1.647776      0.702615     -2.393639
  C       1.605055      0.424583     -1.454375
  C       2.796729      0.094169     -2.156864
  S       0.900761     -0.343690     -3.827343
  C       2.568314     -0.320498     -3.434552
  H       1.563933      1.354799     -0.574692
  H       3.790446      0.217861     -1.751120
  H       3.297737     -0.594504     -4.181843
  H      -0.843574     -3.185000     -0.141398
  H      -0.799650     -2.395285      2.460806
  H       1.717096     -1.610947      3.031854
  O       1.465166      2.373213      0.227230
  O       0.538563      0.945511      1.670449
  C       0.990625      2.097830      1.340176
  C       0.953007      3.142032      2.415930
  H       0.903192      4.139014      1.986174
  H       1.873664      3.079685      2.999590
  H       0.121197      2.984621      3.098194
  H       3.216895     -1.934761      0.838757
  H       1.623804     -2.890732     -1.135880
39
Coordinates from ORCA-job reaction4-IEIP_ts_guess_scan_2-14_orca E -1288.393205074979
  Ir      0.574738     -0.744316      0.522426
  C       0.015997     -2.822918      0.410346
  C       0.022763     -2.363561      1.776077
  C       2.161453     -2.159226      0.939377
  C       1.313411     -2.670981     -0.113099
  C       1.374157     -2.004860      2.095059
  N      -1.035282      0.127904     -0.504368
  C      -2.323647      0.414455      0.150606
  C      -3.111484      1.531740     -0.516314
  H      -3.949000      1.803980      0.124623
  H      -3.539316      1.237016     -1.475614
  H      -2.507684      2.427962     -0.660837
  C      -3.145738     -0.864787      0.254055
  H      -2.058580      0.739104      1.158252
  H      -4.072361     -0.663754      0.789887
  H      -3.408396     -1.247193     -0.733198
  H      -2.619802     -1.646760      0.799382
  C      -0.843310      0.361909     -1.749337
  C       0.494468      0.203487     -2.261070
  H      -1.648484      0.708701     -2.390964
  C       1.604606      0.415752     -1.456272
  C       2.795215      0.092442     -2.163422
  S       0.897921     -0.305727     -3.842637
  C       2.565186     -0.300692     -3.447721
  H       1.568173      1.350581     -0.574499
  H       3.789289      0.203686     -1.754975
  H       3.293474     -0.566834     -4.198931
  H      -0.844498     -3.188159     -0.131509
  H      -0.806034     -2.389977      2.468006
  H       1.709755     -1.605270      3.041374
  O       1.474684      2.370530      0.226103
  O       0.538221      0.947880      1.668509
  C       0.995518      2.096883      1.338313
  C       0.960549      3.143691      2.411314
  H       0.915524      4.139986      1.979513
  H       1.879959      3.078742      2.996680
  H       0.126882      2.990868      3.092380
  H       3.215439     -1.941011      0.854297
  H       1.625603     -2.902084     -1.121071
39
Coordinates from ORCA-job reaction4-IEIP_ts_guess_scan_2-14_orca E -1288.393219097700
  Ir      0.574687     -0.748257      0.526816
  C       0.012994     -2.825924      0.422321
  C       0.015095     -2.361754      1.786173
  C       2.157660     -2.164063      0.956487
  C       1.312871     -2.678576     -0.097139
  C       1.365570     -2.003263      2.108229
  N      -1.032932      0.123807     -0.505059
  C      -2.322728      0.407489      0.149379
  C      -3.109750      1.528825     -0.511786
  H      -3.947650      1.797356      0.130181
  H      -3.537151      1.239853     -1.473022
  H      -2.505838      2.425890     -0.650599
  C      -3.146539     -0.871344      0.244698
  H      -2.059451      0.726803      1.159211
  H      -4.074072     -0.671835      0.779500
  H      -3.407524     -1.248448     -0.745040
  H      -2.622929     -1.656789      0.787186
  C      -0.841415      0.363876     -1.748582
  C       0.493665      0.207959     -2.264594
  H      -1.648143      0.712228     -2.387512
  C       1.605456      0.401614     -1.457357
  C       2.794591      0.092306     -2.172456
  S       0.893617     -0.275562     -3.854680
  C       2.561978     -0.269835     -3.465620
  H       1.574704      1.339265     -0.573905
  H       3.789442      0.193926     -1.763494
  H       3.288737     -0.518403     -4.224285
  H      -0.845884     -3.191855     -0.121632
  H      -0.816358     -2.383976      2.475037
  H       1.698227     -1.599946      3.054026
  O       1.485775      2.362177      0.223429
  O       0.537737      0.949233      1.666219
  C       1.000972      2.093784      1.334634
  C       0.967810      3.146114      2.402483
  H       0.927995      4.140610      1.966161
  H       1.885462      3.079984      2.990481
  H       0.131795      2.999778      3.082177
  H       3.212570     -1.948899      0.875472
  H       1.628324     -2.914960     -1.102801
39
Coordinates from ORCA-job reaction4-IEIP_ts_guess_scan_2-14_orca E -1288.393230618442
  Ir      0.573491     -0.748594      0.527849
  C       0.012971     -2.825986      0.423056
  C       0.012179     -2.361003      1.786690
  C       2.156490     -2.163362      0.961229
  C       1.313951     -2.678524     -0.093888
  C       1.361983     -2.002024      2.111225
  N      -1.031946      0.122800     -0.504190
  C      -2.321905      0.404858      0.150798
  C      -3.108372      1.528864     -0.506673
  H      -3.945881      1.795732      0.136499
  H      -3.536323      1.243274     -1.468665
  H      -2.504023      2.426036     -0.642814
  C      -3.146103     -0.874043      0.241235
  H      -2.059090      0.720774      1.161810
  H      -4.074014     -0.676025      0.775938
  H      -3.406416     -1.247800     -0.749952
  H      -2.623199     -1.661613      0.781460
  C      -0.840706      0.364284     -1.747317
  C       0.493484      0.209283     -2.264183
  H      -1.647953      0.712754     -2.385634
  C       1.606451      0.397440     -1.457405
  C       2.794784      0.091268     -2.174659
  S       0.892418     -0.260532     -3.858738
  C       2.560356     -0.265891     -3.469087
  H       1.578348      1.333176     -0.573053
  H       3.790048      0.187769     -1.765522
  H       3.286100     -0.513427     -4.229065
  H      -0.844588     -3.192434     -0.122624
  H      -0.820737     -2.382742      2.473809
  H       1.692699     -1.597926      3.057373
  O       1.490322      2.357698      0.222313
  O       0.536565      0.949845      1.664748
  C       1.002241      2.092887      1.332528
  C       0.967960      3.147971      2.398050
  H       0.929905      4.141458      1.959320
  H       1.884396      3.082342      2.987974
  H       0.130535      3.004118      3.076564
  H       3.211549     -1.948091      0.882523
  H       1.631398     -2.915426     -1.098780
39
Coordinates from ORCA-job reaction4-IEIP_ts_guess_scan_2-14_orca E -1288.393238124837
  Ir      0.573709     -0.748848      0.528637
  C       0.015030     -2.826503      0.421302
  C       0.011717     -2.361854      1.785222
  C       2.157359     -2.162816      0.963660
  C       1.316804     -2.677821     -0.093202
  C       1.360970     -2.002545      2.112378
  N      -1.031897      0.123015     -0.503170
  C      -2.321733      0.404334      0.152390
  C      -3.106779      1.530858     -0.502589
  H      -3.943966      1.797271      0.141213
  H      -3.534998      1.247960     -1.465242
  H      -2.501266      2.427522     -0.636732
  C      -3.146893     -0.874216      0.238725
  H      -2.059176      0.717402      1.164316
  H      -4.075096     -0.677106      0.773305
  H      -3.406764     -1.245065     -0.753672
  H      -2.624943     -1.663738      0.776986
  C      -0.841328      0.363970     -1.746624
  C       0.492534      0.209179     -2.263496
  H      -1.648996      0.711541     -2.384888
  C       1.606069      0.396235     -1.457477
  C       2.794000      0.089835     -2.174884
  S       0.891031     -0.259585     -3.858804
  C       2.558755     -0.266556     -3.469557
  H       1.579633      1.329706     -0.572319
  H       3.789462      0.185461     -1.766072
  H       3.284179     -0.513956     -4.229896
  H      -0.841232     -3.193391     -0.126109
  H      -0.822387     -2.384249      2.470900
  H       1.689942     -1.598746      3.059259
  O       1.491657      2.355534      0.221367
  O       0.537050      0.950033      1.664992
  C       1.002537      2.093095      1.331380
  C       0.966541      3.149671      2.395463
  H       0.927353      4.142398      1.955095
  H       1.882893      3.086065      2.985715
  H       0.129118      3.005892      3.073964
  H       3.212418     -1.946827      0.886910
  H       1.636062     -2.913963     -1.097710
39
Coordinates from ORCA-job reaction4-IEIP_ts_guess_scan_2-14_orca E -1288.393247000269
  Ir      0.574325     -0.749431      0.530431
  C       0.018035     -2.827584      0.419471
  C       0.008110     -2.362875      1.783542
  C       2.157558     -2.162422      0.972315
  C       1.322125     -2.677606     -0.088558
  C       1.355754     -2.003046      2.117257
  N      -1.030867      0.122895     -0.501102
  C      -2.320665      0.401961      0.155492
  C      -3.103344      1.533733     -0.493533
  H      -3.940114      1.798387      0.151554
  H      -3.531815      1.256817     -1.457783
  H      -2.495823      2.429714     -0.622862
  C      -3.147412     -0.876128      0.232783
  H      -2.058733      0.708566      1.169488
  H      -4.076021     -0.681671      0.767689
  H      -3.406681     -1.240241     -0.762268
  H      -2.626786     -1.669895      0.766085
  C      -0.842022      0.363851     -1.745112
  C       0.490812      0.210131     -2.263670
  H      -1.651056      0.710177     -2.382314
  C       1.605713      0.391463     -1.458597
  C       2.792409      0.086850     -2.178139
  S       0.887341     -0.252615     -3.861745
  C       2.554932     -0.262970     -3.474502
  H       1.583777      1.322321     -0.570823
  H       3.788505      0.179403     -1.770243
  H       3.279349     -0.507321     -4.236801
  H      -0.835078     -3.195392     -0.132208
  H      -0.829184     -2.385919      2.465321
  H       1.680094     -1.599247      3.065739
  O       1.497587      2.351048      0.219298
  O       0.537878      0.951019      1.664789
  C       1.004700      2.093277      1.328626
  C       0.964977      3.153215      2.389145
  H       0.924398      4.144296      1.945151
  H       1.880679      3.093430      2.980756
  H       0.126885      3.010120      3.066909
  H       3.212860     -1.945860      0.900819
  H       1.646170     -2.913260     -1.091659
39
Coordinates from ORCA-job reaction4-IEIP_ts_guess_scan_2-14_orca E -1288.393252191493
  Ir      0.575350     -0.749729      0.531677
  C       0.021129     -2.828574      0.417904
  C       0.004634     -2.363762      1.781965
  C       2.157770     -2.161770      0.980852
  C       1.327468     -2.677473     -0.083755
  C       1.350440     -2.003137      2.122006
  N      -1.030019      0.122447     -0.499382
  C      -2.319845      0.399679      0.157981
  C      -3.100380      1.536105     -0.485679
  H      -3.936938      1.799174      0.160322
  H      -3.528834      1.264555     -1.451439
  H      -2.491019      2.431453     -0.610537
  C      -3.148250     -0.877797      0.227416
  H      -2.058383      0.700455      1.173802
  H      -4.076849     -0.685711      0.763215
  H      -3.407625     -1.235560     -0.769917
  H      -2.628535     -1.675493      0.755725
  C      -0.842742      0.363652     -1.743769
  C       0.489224      0.210806     -2.264355
  H      -1.653040      0.709287     -2.379736
  C       1.605329      0.387561     -1.460144
  C       2.790817      0.084317     -2.181939
  S       0.883558     -0.246996     -3.864683
  C       2.551261     -0.260048     -3.479533
  H       1.587325      1.317216     -0.569769
  H       3.787543      0.174458     -1.775078
  H       3.274684     -0.502003     -4.243545
  H      -0.828913     -3.197408     -0.137796
  H      -0.835716     -2.387605      2.459956
  H       1.670039     -1.599144      3.072023
  O       1.503593      2.348034      0.217887
  O       0.538804      0.952032      1.664279
  C       1.006994      2.093457      1.326412
  C       0.964052      3.155938      2.384078
  H       0.922086      4.145769      1.937372
  H       1.879324      3.099495      2.976660
  H       0.125481      3.012977      3.061227
  H       3.213296     -1.944745      0.914456
  H       1.656259     -2.912723     -1.085419
39
Coordinates from ORCA-job reaction4-IEIP_ts_guess_scan_2-14_orca E -1288.393257253326
  Ir      0.577015     -0.749924      0.532841
  C       0.025751     -2.829856      0.415301
  C      -0.000741     -2.364896      1.779218
  C       2.157905     -2.160389      0.993380
  C       1.335476     -2.677212     -0.076689
  C       1.342022     -2.002770      2.128711
  N      -1.029051      0.121528     -0.497087
  C      -2.318969      0.396161      0.161265
  C      -3.096600      1.539116     -0.474541
  H      -3.933070      1.799599      0.172595
  H      -3.524761      1.275346     -1.442558
  H      -2.484807      2.433699     -0.592702
  C      -3.149620     -0.880425      0.219569
  H      -2.058121      0.688500      1.179659
  H      -4.077717     -0.692076      0.757559
  H      -3.409977     -1.228558     -0.780923
  H      -2.630592     -1.683889      0.739805
  C      -0.843857      0.363383     -1.741777
  C       0.486952      0.211434     -2.265392
  H      -1.655804      0.708529     -2.375933
  C       1.604720      0.383088     -1.462589
  C       2.788448      0.081243     -2.187689
  S       0.877797     -0.240694     -3.868365
  C       2.545943     -0.257017     -3.486422
  H       1.591979      1.311852     -0.568912
  H       3.786087      0.168605     -1.782478
  H       3.267866     -0.496488     -4.252631
  H      -0.819692     -3.200266     -0.146309
  H      -0.845631     -2.390071      2.451499
  H       1.654247     -1.598257      3.080978
  O       1.512766      2.344879      0.216314
  O       0.540524      0.953787      1.662981
  C       1.010845      2.093884      1.323495
  C       0.963739      3.159612      2.377514
  H       0.919437      4.147872      1.927487
  H       1.878771      3.107966      2.970888
  H       0.124894      3.016393      3.054210
  H       3.213727     -1.942747      0.934620
  H       1.671471     -2.911752     -1.076153
39
Coordinates from ORCA-job reaction4-IEIP_ts_guess_scan_2-14_orca E -1288.393261261308
  Ir      0.578736     -0.750026      0.533535
  C       0.031379     -2.831165      0.411892
  C      -0.006255     -2.366270      1.775615
  C       2.158262     -2.158055      1.006503
  C       1.344749     -2.676496     -0.069475
  C       1.332841     -2.001824      2.135366
  N      -1.028623      0.120202     -0.495027
  C      -2.318549      0.392541      0.164364
  C      -3.093119      1.542076     -0.463411
  H      -3.929631      1.799789      0.184749
  H      -3.520818      1.286364     -1.433769
  H      -2.478926      2.435906     -0.574534
  C      -3.151646     -0.882925      0.211604
  H      -2.058171      0.676357      1.185255
  H      -4.078676     -0.698433      0.752752
  H      -3.413961     -1.220740     -0.791917
  H      -2.632952     -1.692467      0.722729
  C      -0.845357      0.362874     -1.739816
  C       0.484399      0.211443     -2.266353
  H      -1.658682      0.708090     -2.372228
  C       1.603773      0.379629     -1.465167
  C       2.785767      0.078635     -2.193505
  S       0.871541     -0.236509     -3.871346
  C       2.540402     -0.255453     -3.492754
  H       1.595820      1.307982     -0.569000
  H       3.784285      0.163887     -1.790010
  H       3.260748     -0.493422     -4.260904
  H      -0.808954     -3.203441     -0.156093
  H      -0.856038     -2.393273      2.441633
  H       1.636705     -1.596510      3.090021
  O       1.522228      2.342262      0.215124
  O       0.542294      0.955538      1.661065
  C       1.015009      2.094150      1.320771
  C       0.964516      3.162867      2.371556
  H       0.917300      4.149678      1.918591
  H       1.879901      3.116156      2.964789
  H       0.126086      3.019077      3.048604
  H       3.214288     -1.939480      0.956069
  H       1.688698     -2.909827     -1.066542
39
Coordinates from ORCA-job reaction4-IEIP_ts_guess_scan_2-14_orca E -1288.393264297246
  Ir      0.580158     -0.750057      0.533832
  C       0.038160     -2.832486      0.407196
  C      -0.012464     -2.367994      1.770719
  C       2.158586     -2.154490      1.020858
  C       1.355635     -2.675086     -0.061889
  C       1.322134     -2.000220      2.142181
  N      -1.028841      0.118614     -0.493144
  C      -2.318709      0.388553      0.167452
  C      -3.090223      1.544827     -0.451739
  H      -3.926978      1.799136      0.197439
  H      -3.517221      1.297804     -1.424630
  H      -2.473866      2.438087     -0.555086
  C      -3.154168     -0.885755      0.203114
  H      -2.058775      0.663499      1.190850
  H      -4.079609     -0.705707      0.748448
  H      -3.419321     -1.212162     -0.803432
  H      -2.635327     -1.701824      0.703692
  C      -0.847389      0.362319     -1.737859
  C       0.481390      0.211030     -2.267102
  H      -1.661803      0.708048     -2.368670
  C       1.602360      0.377072     -1.467746
  C       2.782628      0.076325     -2.199180
  S       0.864669     -0.234199     -3.873549
  C       2.534466     -0.255327     -3.498432
  H       1.598948      1.305310     -0.570271
  H       3.781981      0.159964     -1.797402
  H       3.253099     -0.492664     -4.268364
  H      -0.796197     -3.206968     -0.168084
  H      -0.867813     -2.397379      2.429478
  H       1.616172     -1.593811      3.099480
  O       1.532507      2.339881      0.214108
  O       0.544063      0.957660      1.658471
  C       1.019965      2.094485      1.318067
  C       0.967263      3.166108      2.365893
  H       0.916246      4.151440      1.910080
  H       1.883880      3.124653      2.957611
  H       0.130289      3.021609      3.044556
  H       3.214710     -1.934578      0.980011
  H       1.708767     -2.906525     -1.056217
39
Coordinates from ORCA-job reaction4-IEIP_ts_guess_scan_2-14_orca E -1288.393266620702
  Ir      0.580706     -0.750003      0.533919
  C       0.044504     -2.833510      0.402461
  C      -0.017469     -2.369815      1.765903
  C       2.158922     -2.150488      1.032604
  C       1.365374     -2.673091     -0.056022
  C       1.313037     -1.998505      2.147391
  N      -1.029691      0.117348     -0.492045
  C      -2.319386      0.385606      0.169635
  C      -3.088743      1.546666     -0.443273
  H      -3.925800      1.798137      0.206630
  H      -3.515086      1.306177     -1.418071
  H      -2.471070      2.439673     -0.540654
  C      -3.156503     -0.887822      0.196952
  H      -2.059688      0.654317      1.194722
  H      -4.080473     -0.711191      0.745887
  H      -3.424251     -1.205581     -0.811666
  H      -2.637362     -1.708774      0.689231
  C      -0.849537      0.361788     -1.736663
  C       0.478614      0.210390     -2.267573
  H      -1.664503      0.708127     -2.366492
  C       1.600713      0.375648     -1.469610
  C       2.779801      0.074741     -2.203047
  S       0.859201     -0.233844     -3.874693
  C       2.529748     -0.256266     -3.502030
  H       1.600328      1.303938     -0.572332
  H       3.779686      0.157519     -1.802402
  H       3.247044     -0.493660     -4.273177
  H      -0.784538     -3.210014     -0.179136
  H      -0.877567     -2.401565      2.418347
  H       1.598499     -1.591135      3.106904
  O       1.540341      2.337853      0.213429
  O       0.544837      0.959338      1.656145
  C       1.024083      2.094572      1.316150
  C       0.971287      3.168091      2.362196
  H       0.916476      4.152312      1.904385
  H       1.889833      3.130668      2.951178
  H       0.136602      3.022962      3.043506
  H       3.214982     -1.929030      1.000075
  H       1.726422     -2.902388     -1.048027
39
Coordinates from ORCA-job reaction4-IEIP_ts_guess_scan_2-14_orca E -1288.393268362337
  Ir      0.580407     -0.749835      0.533932
  C       0.049062     -2.834147      0.398646
  C      -0.021116     -2.371296      1.762095
  C       2.158904     -2.147072      1.040679
  C       1.372256     -2.671130     -0.052201
  C       1.306372     -1.997134      2.150767
  N      -1.030669      0.116729     -0.491643
  C      -2.320210      0.383830      0.170809
  C      -3.088695      1.547343     -0.438569
  H      -3.926038      1.796785      0.211768
  H      -3.514545      1.310592     -1.414485
  H      -2.470656      2.440469     -0.532388
  C      -3.157929     -0.889280      0.193530
  H      -2.060625      0.649338      1.196735
  H      -4.081003     -0.714827      0.744676
  H      -3.427246     -1.202166     -0.816185
  H      -2.638417     -1.712924      0.680943
  C      -0.851303      0.361523     -1.736240
  C       0.476526      0.210010     -2.267883
  H      -1.666491      0.708145     -2.365649
  C       1.599248      0.374935     -1.470685
  C       2.777742      0.073811     -2.205024
  S       0.855816     -0.234019     -3.875254
  C       2.526729     -0.257109     -3.503837
  H       1.600491      1.303329     -0.574342
  H       3.777866      0.156180     -1.804891
  H       3.243201     -0.494631     -4.275704
  H      -0.776040     -3.212176     -0.187539
  H      -0.884624     -2.404808      2.409935
  H       1.585695     -1.589164      3.111848
  O       1.545213      2.336381      0.212899
  O       0.544750      0.960686      1.654578
  C       1.027098      2.094705      1.315022
  C       0.975814      3.169030      2.360401
  H       0.917608      4.152584      1.901530
  H       1.896596      3.134184      2.946027
  H       0.143782      3.023295      3.044781
  H       3.214841     -1.924300      1.014212
  H       1.738959     -2.898678     -1.042551
39
Coordinates from ORCA-job reaction4-IEIP_ts_guess_scan_2-14_orca E -1288.393269987095
  Ir      0.579841     -0.749646      0.534035
  C       0.051721     -2.834563      0.396443
  C      -0.023203     -2.372285      1.759905
  C       2.158773     -2.144800      1.045312
  C       1.376163     -2.669719     -0.050016
  C       1.302508     -1.996303      2.152714
  N      -1.031385      0.116577     -0.491691
  C      -2.320821      0.383149      0.171153
  C      -3.089210      1.547380     -0.437016
  H      -3.926700      1.795885      0.213503
  H      -3.514827      1.311971     -1.413353
  H      -2.471234      2.440686     -0.529476
  C      -3.158592     -0.889934      0.192355
  H      -2.061234      0.647792      1.197290
  H      -4.081406     -0.716312      0.744212
  H      -3.428375     -1.201233     -0.817722
  H      -2.638955     -1.714468      0.678131
  C      -0.852460      0.361376     -1.736368
  C       0.475221      0.209902     -2.268256
  H      -1.667789      0.707916     -2.365632
  C       1.598179      0.374341     -1.471276
  C       2.776509      0.073360     -2.205864
  S       0.854238     -0.233695     -3.875841
  C       2.525176     -0.257129     -3.504768
  H       1.600002      1.302798     -0.575606
  H       3.776690      0.155474     -1.805833
  H       3.241293     -0.494447     -4.277030
  H      -0.771004     -3.213615     -0.192411
  H      -0.888688     -2.406806      2.405052
  H       1.578331     -1.588073      3.114701
  O       1.547263      2.335360      0.212452
  O       0.544146      0.961412      1.653856
  C       1.028729      2.094690      1.314503
  C       0.979392      3.169023      2.359953
  H       0.918376      4.152314      1.900830
  H       1.902220      3.135665      2.942421
  H       0.149790      3.022518      3.047068
  H       3.214590     -1.921106      1.022413
  H       1.746103     -2.896263     -1.039402
39
Coordinates from ORCA-job reaction4-IEIP_ts_guess_scan_2-14_orca E -1288.393271207443
  Ir      0.579289     -0.749483      0.534163
  C       0.053192     -2.834925      0.395275
  C      -0.024747     -2.372879      1.758684
  C       2.158444     -2.143361      1.048468
  C       1.378401     -2.668872     -0.048371
  C       1.299824     -1.995761      2.154151
  N      -1.031800      0.116583     -0.491815
  C      -2.321224      0.382771      0.171184
  C      -3.089790      1.547152     -0.436533
  H      -3.927350      1.795176      0.214084
  H      -3.515299      1.312212     -1.413026
  H      -2.471955      2.440610     -0.528464
  C      -3.158817     -0.890419      0.191824
  H      -2.061655      0.647220      1.197367
  H      -4.081720     -0.717184      0.743661
  H      -3.428466     -1.201328     -0.818410
  H      -2.639160     -1.715156      0.677232
  C      -0.853174      0.361313     -1.736600
  C       0.474379      0.209988     -2.268680
  H      -1.668704      0.707569     -2.365740
  C       1.597439      0.373664     -1.471715
  C       2.775744      0.073125     -2.206404
  S       0.853451     -0.232636     -3.876617
  C       2.524276     -0.256373     -3.505589
  H       1.599473      1.302130     -0.576218
  H       3.775941      0.154936     -1.806368
  H       3.240250     -0.493148     -4.278156
  H      -0.767962     -3.214742     -0.195270
  H      -0.891514     -2.407901      2.402078
  H       1.573443     -1.587389      3.116709
  O       1.548145      2.334704      0.211916
  O       0.543610      0.961970      1.653522
  C       1.029803      2.094737      1.314139
  C       0.982315      3.168830      2.359855
  H       0.918456      4.152016      1.900835
  H       1.907149      3.136837      2.939201
  H       0.155104      3.021240      3.049568
  H       3.214175     -1.919061      1.027893
  H       1.750405     -2.894976     -1.037091
