! Opt PBEh-3c
%geom Constraints
{ B 0 20 2.085714285714286 C }
{ B 24 30 1.3714285714285714 C }
    end
end
%output 
xyzfile=True 
end 
%scf 
maxiter 250 
end
%output
Print[P_Hirshfeld] = 1
end
% maxcore
4000
*xyz 1 1
Ir   0.61195518  -0.73057103   0.42330154 
C    0.11693174  -2.84234142   0.36016637 
C   -0.06306455  -2.38007956   1.71111303 
C    2.15752512  -2.08327786   1.13192391 
C    1.47432258  -2.66992971   0.01050303 
C    1.20141527  -1.93473424   2.17116458 
N   -1.06664673   0.12025558  -0.51503589 
C   -2.34033007   0.32266704   0.19197104 
C   -3.14252945   1.51239985  -0.31564598 
H   -3.97362258   1.69184852   0.36454478 
H   -3.57840159   1.34058907  -1.30077515 
H   -2.54486340   2.42361814  -0.34928220 
C   -3.15829831  -0.96300530   0.13791492 
H   -2.06060128   0.51843290   1.22828914 
H   -4.06770127  -0.84890766   0.72650151 
H   -3.45096276  -1.19950768  -0.88586246 
H   -2.61185629  -1.81379576   0.54128509 
C   -0.91035867   0.47346596  -1.73782031 
C    0.40926251   0.30166345  -2.26578050 
H   -1.71755524   0.90359167  -2.32185971 
C    1.44707753   0.07789351  -1.35989002 
C    2.66145962  -0.16766518  -2.07261619 
S    0.89799045   0.24060232  -3.88880787 
C    2.51025648  -0.10472767  -3.42442172 
H    1.63004768   1.14153123  -0.62467234 
H    3.61944980  -0.32376083  -1.59804537 
H    3.27121011  -0.22256130  -4.18089281 
H   -0.64626938  -3.26795296  -0.27497371 
H   -0.97146964  -2.41990468   2.29248198 
H    1.39348239  -1.48726668   3.13621800 
O    1.73466376   2.30154511   0.12607886 
O    0.56137763   1.02304242   1.51899325 
C    1.12896161   2.11475963   1.19899888 
C    1.07834022   3.22766076   2.20405369 
H    0.96860738   4.18811739   1.70570622 
H    2.02314897   3.25375108   2.74964704 
H    0.27540031   3.08409609   2.92156058 
H    3.21221033  -1.86664911   1.20215319 
H    1.91880451  -2.93570318  -0.93744834 
*
