! Opt PBEh-3c
%geom Constraints
{ B 0 20 2.342857142857143 C }
{ B 24 30 1.342857142857143 C }
    end
end
%output 
xyzfile=True 
end 
%scf 
maxiter 250 
end
%output
Print[P_Hirshfeld] = 1
end
% maxcore
4000
*xyz 1 1
Ir   0.60248352  -0.73385681   0.48558352 
C    0.08846240  -2.82906190   0.35650755 
C   -0.00468825  -2.36953061   1.71892480 
C    2.18250504  -2.11674009   1.02336101 
C    1.41726958  -2.65664401  -0.07574217 
C    1.30891711  -1.97341278   2.12102813 
N   -1.03939017   0.12693742  -0.50213876 
C   -2.31679361   0.39123597   0.18164328 
C   -3.08972550   1.56408702  -0.40353350 
H   -3.92007421   1.80510947   0.25878517 
H   -3.52528149   1.34146169  -1.37848206 
H   -2.47123326   2.45760932  -0.49045885 
C   -3.15637202  -0.88088892   0.20008719 
H   -2.04036474   0.64295264   1.20645872 
H   -4.06749958  -0.71402657   0.77298143 
H   -3.44664761  -1.17646143  -0.80897906 
H   -2.62781242  -1.71324221   0.66237543 
C   -0.87359919   0.37958051  -1.74631298 
C    0.45510478   0.20738992  -2.27060340 
H   -1.68565247   0.74280750  -2.36965274 
C    1.55792120   0.31523588  -1.43227360 
C    2.75079210  -0.00282236  -2.14033979 
S    0.86675155  -0.22654358  -3.86595273 
C    2.52745882  -0.30463554  -3.44980494 
H    1.56757799   1.26502512  -0.60776999 
H    3.74044559   0.04704314  -1.71008755 
H    3.25696307  -0.54858010  -4.20722474 
H   -0.72389926  -3.21920108  -0.23948062 
H   -0.87644518  -2.40956551   2.35492795 
H    1.56966963  -1.55695759   3.08375716 
O    1.50493278   2.36690938   0.18201694 
O    0.55002050   0.96556312   1.62684058 
C    1.01121890   2.11106876   1.28923390 
C    0.95981167   3.17274970   2.34876141 
H    0.90047283   4.16186646   1.90232895 
H    1.88021454   3.13030466   2.93440150 
H    0.12808204   3.01819944   3.03176323 
H    3.23830494  -1.89271034   1.01685141 
H    1.79946836  -2.88906563  -1.05904164 
*
