! Opt PBEh-3c
%geom Constraints
{ B 0 20 2.1285714285714286 C }
{ B 24 30 1.3285714285714287 C }
    end
end
%output 
xyzfile=True 
end 
%scf 
maxiter 250 
end
%output
Print[P_Hirshfeld] = 1
end
% maxcore
4000
*xyz 1 1
Ir   0.60640051  -0.73351626   0.44045555 
C    0.13862217  -2.84486855   0.35227736 
C   -0.09905720  -2.38558545   1.69664258 
C    2.13982790  -2.06606684   1.20754230 
C    1.50834384  -2.65889497   0.06096454 
C    1.14022286  -1.92970833   2.20877264 
N   -1.07022278   0.10819497  -0.50764465 
C   -2.34878447   0.29922293   0.19507263 
C   -3.13935523   1.50734808  -0.28719306 
H   -3.97413057   1.67522245   0.39145117 
H   -3.56891503   1.36559996  -1.27980190 
H   -2.53421599   2.41416992  -0.29274355 
C   -3.17322032  -0.97981968   0.10121223 
H   -2.07740015   0.46805775   1.23824308 
H   -4.08358866  -0.88003486   0.69097310 
H   -3.46439933  -1.18440294  -0.92988139 
H   -2.63118661  -1.84550262   0.47849870 
C   -0.91775077   0.45918278  -1.73175222 
C    0.39862179   0.30080854  -2.27141828 
H   -1.73214339   0.87936734  -2.31353010 
C    1.45041024   0.08174213  -1.38659214 
C    2.65637239  -0.14958497  -2.11146119 
S    0.86790418   0.25741587  -3.90416623 
C    2.48696008  -0.07733990  -3.46212161 
H    1.63882858   1.15020947  -0.60164161 
H    3.62110886  -0.30475797  -1.65053477 
H    3.23975085  -0.18499754  -4.22825038 
H   -0.59253548  -3.28116928  -0.31248408 
H   -1.02967664  -2.43474135   2.24110860 
H    1.28720864  -1.48200075   3.18159331 
O    1.77298891   2.27350994   0.12186538 
O    0.56435900   1.03508539   1.51909696 
C    1.15741570   2.10879627   1.19712135 
C    1.13210243   3.23406692   2.18745070 
H    1.01030089   4.18796249   1.67899674 
H    2.09049193   3.26822503   2.70830595 
H    0.34628395   3.10028799   2.92520833 
H    3.18866972  -1.83903918   1.31958138 
H    1.99275722  -2.91325479  -0.87047741 
*
