39
Generated by autodE on: 2023-08-15. E = -1288.402628 Ha
Ir    0.60117  -0.73725   0.46858
C     0.10887  -2.84093   0.37308
C    -0.08601  -2.37092   1.72041
C     2.14420  -2.09175   1.17252
C     1.46898  -2.66823   0.03936
C     1.18079  -1.93869   2.20014
N    -1.05825   0.11036  -0.50344
C    -2.34198   0.31426   0.18803
C    -3.12986   1.51264  -0.32251
H    -3.96646   1.69594   0.34998
H    -3.55705   1.34989  -1.31290
H    -2.52425   2.41885  -0.34594
C    -3.16670  -0.96577   0.11472
H    -2.07702   0.50367   1.22927
H    -4.08309  -0.85135   0.69238
H    -3.44766  -1.19365  -0.91434
H    -2.63048  -1.82311   0.51842
C    -0.89881   0.44190  -1.73176
C     0.41935   0.28989  -2.27270
H    -1.71440   0.84612  -2.32365
C     1.49552   0.14527  -1.40651
C     2.68982  -0.10055  -2.14082
S     0.85617   0.16737  -3.91328
C     2.49094  -0.10613  -3.49014
H     1.65137   1.16657  -0.57069
H     3.66670  -0.21017  -1.69280
H     3.22968  -0.23875  -4.26600
H    -0.64937  -3.25961  -0.27251
H    -1.00022  -2.41040   2.29307
H     1.36393  -1.49624   3.16925
O     1.75316   2.26927   0.16333
O     0.54964   1.01910   1.55583
C     1.13481   2.09972   1.23430
C     1.09193   3.22283   2.22633
H     0.96520   4.17609   1.71786
H     2.04629   3.26512   2.75396
H     0.30241   3.08149   2.95879
H     3.19768  -1.87110   1.24867
H     1.92237  -2.92257  -0.90752
