39
Coordinates from ORCA-job reaction4-IEIP_ts_guess_scan_6-11_orca E -1288.399381188241
  Ir      0.603929     -0.726517      0.471104
  C       0.094765     -2.822479      0.337229
  C       0.007892     -2.368065      1.701954
  C       2.190824     -2.106729      0.995091
  C       1.421048     -2.644788     -0.101820
  C       1.322716     -1.969745      2.098279
  N      -1.045910      0.132896     -0.503430
  C      -2.322018      0.395010      0.183616
  C      -3.097943      1.567217     -0.398899
  H      -3.927016      1.806672      0.265589
  H      -3.535553      1.344666     -1.372946
  H      -2.480864      2.461631     -0.486711
  C      -3.159838     -0.878258      0.203225
  H      -2.043453      0.646404      1.207935
  H      -4.069807     -0.713012      0.778432
  H      -3.452152     -1.173537     -0.805341
  H      -2.629041     -1.710213      0.663672
  C      -0.878731      0.383703     -1.745048
  C       0.452233      0.201600     -2.255041
  H      -1.686543      0.746513     -2.374156
  C       1.548084      0.308454     -1.406764
  C       2.745041     -0.021677     -2.102827
  S       0.875296     -0.245522     -3.843810
  C       2.531590     -0.331083     -3.412193
  H       1.560374      1.265557     -0.591474
  H       3.731327      0.025494     -1.664518
  H       3.266419     -0.584432     -4.161455
  H      -0.719853     -3.212649     -0.255663
  H      -0.860251     -2.412728      2.342621
  H       1.587568     -1.555990      3.061066
  O       1.501666      2.364123      0.178573
  O       0.552241      0.967978      1.620108
  C       1.009740      2.113330      1.284796
  C       0.957981      3.176132      2.343183
  H       0.897500      4.164704      1.895695
  H       1.878754      3.135159      2.928347
  H       0.126778      3.021588      3.026828
  H       3.245960     -1.879718      0.983525
  H       1.798620     -2.872498     -1.088031
39
Coordinates from ORCA-job reaction4-IEIP_ts_guess_scan_6-11_orca E -1288.399535555006
  Ir      0.606759     -0.728473      0.472645
  C       0.092733     -2.825356      0.344208
  C       0.004779     -2.369551      1.708067
  C       2.189008     -2.111977      1.003492
  C       1.419942     -2.651164     -0.093215
  C       1.319106     -1.971573      2.105084
  N      -1.045515      0.131760     -0.505230
  C      -2.320828      0.393614      0.182115
  C      -3.097353      1.564164     -0.402795
  H      -3.927191      1.803932      0.260597
  H      -3.533731      1.339502     -1.376939
  H      -2.481018      2.459005     -0.491592
  C      -3.157116     -0.880566      0.203749
  H      -2.041871      0.646542      1.205962
  H      -4.067081     -0.715527      0.778993
  H      -3.449409     -1.177632     -0.804299
  H      -2.625082     -1.711155      0.665312
  C      -0.880444      0.385030     -1.749238
  C       0.450993      0.209898     -2.264221
  H      -1.689821      0.750828     -2.374593
  C       1.543871      0.302592     -1.410890
  C       2.741596     -0.023233     -2.108655
  S       0.875555     -0.223439     -3.856183
  C       2.530684     -0.317541     -3.421788
  H       1.559282      1.267659     -0.592212
  H       3.727146      0.017482     -1.668022
  H       3.266718     -0.564291     -4.171967
  H      -0.721595     -3.215521     -0.249110
  H      -0.864146     -2.412452      2.347673
  H       1.583144     -1.556718      3.067602
  O       1.505397      2.367017      0.177056
  O       0.552482      0.969229      1.622045
  C       1.012475      2.114485      1.285776
  C       0.961714      3.177486      2.343723
  H       0.901821      4.166128      1.896211
  H       1.882555      3.135876      2.928702
  H       0.130456      3.023377      3.027309
  H       3.244706     -1.887660      0.993477
  H       1.798648     -2.882587     -1.078107
39
Coordinates from ORCA-job reaction4-IEIP_ts_guess_scan_6-11_orca E -1288.399633943893
  Ir      0.604769     -0.729519      0.475270
  C       0.084911     -2.826614      0.357010
  C      -0.004653     -2.367638      1.718997
  C       2.181077     -2.115126      1.016595
  C       1.413298     -2.657202     -0.078985
  C       1.308521     -1.969099      2.115988
  N      -1.042842      0.127040     -0.505059
  C      -2.318945      0.386815      0.181274
  C      -3.097064      1.556976     -0.402483
  H      -3.927751      1.794743      0.260587
  H      -3.532446      1.332736     -1.377134
  H      -2.482048      2.452874     -0.489810
  C      -3.153929     -0.888296      0.201787
  H      -2.040704      0.638771      1.205584
  H      -4.064437     -0.724711      0.776657
  H      -3.445289     -1.185090     -0.806595
  H      -2.621029     -1.718324      0.663200
  C      -0.877563      0.386109     -1.749456
  C       0.453275      0.216420     -2.271390
  H      -1.688170      0.756223     -2.370285
  C       1.545315      0.286508     -1.414715
  C       2.742860     -0.025181     -2.120138
  S       0.877335     -0.179366     -3.872594
  C       2.531974     -0.289004     -3.439578
  H       1.566079      1.262142     -0.592356
  H       3.728536      0.003885     -1.678756
  H       3.267915     -0.519728     -4.194855
  H      -0.729022     -3.217351     -0.236441
  H      -0.874700     -2.407173      2.357146
  H       1.571358     -1.551178      3.077498
  O       1.519023      2.363427      0.174600
  O       0.548487      0.971721      1.619970
  C       1.017772      2.112869      1.283300
  C       0.969011      3.178729      2.337585
  H       0.916951      4.166727      1.887635
  H       1.887040      3.132935      2.926668
  H       0.133709      3.030694      3.017451
  H       3.237447     -1.894078      1.008507
  H       1.793302     -2.894476     -1.061935
39
Coordinates from ORCA-job reaction4-IEIP_ts_guess_scan_6-11_orca E -1288.399672319463
  Ir      0.605892     -0.733138      0.478895
  C       0.081725     -2.829600      0.369438
  C      -0.008645     -2.366576      1.729696
  C       2.178517     -2.120346      1.028559
  C       1.411102     -2.664650     -0.065955
  C       1.304427     -1.968478      2.126171
  N      -1.041978      0.123639     -0.506267
  C      -2.319786      0.380563      0.178838
  C      -3.097500      1.553166     -0.400626
  H      -3.928971      1.787800      0.262546
  H      -3.531880      1.333153     -1.376681
  H      -2.482623      2.449613     -0.483285
  C      -3.155798     -0.894066      0.192726
  H      -2.043599      0.628255      1.204756
  H      -4.067583     -0.731942      0.765991
  H      -3.444949     -1.186884     -0.817456
  H      -2.624728     -1.726106      0.652335
  C      -0.876917      0.388595     -1.749244
  C       0.451919      0.221819     -2.274472
  H      -1.688760      0.760404     -2.367392
  C       1.543572      0.275732     -1.416341
  C       2.741061     -0.025552     -2.125782
  S       0.875741     -0.148096     -3.881463
  C       2.530549     -0.262890     -3.450439
  H       1.568924      1.256123     -0.593279
  H       3.726490     -0.006775     -1.683313
  H       3.266720     -0.480242     -4.209432
  H      -0.732181     -3.220775     -0.223757
  H      -0.879488     -2.402298      2.366953
  H       1.566993     -1.547484      3.086425
  O       1.527088      2.359171      0.171443
  O       0.550533      0.973657      1.618435
  C       1.023227      2.111584      1.280121
  C       0.977593      3.181144      2.330489
  H       0.928601      4.167908      1.877548
  H       1.895355      3.134421      2.919929
  H       0.141601      3.037497      3.010457
  H       3.235479     -1.902208      1.021609
  H       1.791645     -2.906947     -1.047434
39
Coordinates from ORCA-job reaction4-IEIP_ts_guess_scan_6-11_orca E -1288.399692556621
  Ir      0.605220     -0.735540      0.481441
  C       0.079097     -2.830801      0.377645
  C      -0.012735     -2.364852      1.736686
  C       2.175879     -2.122747      1.037600
  C       1.409472     -2.668602     -0.056704
  C       1.300107     -1.966830      2.133432
  N      -1.040982      0.120721     -0.506259
  C      -2.320194      0.374220      0.178218
  C      -3.097704      1.549709     -0.395881
  H      -3.929454      1.780752      0.268152
  H      -3.531800      1.334697     -1.373191
  H      -2.483019      2.446734     -0.473729
  C      -3.156640     -0.900201      0.184299
  H      -2.045995      0.617027      1.205858
  H      -4.069806     -0.740337      0.755976
  H      -3.443361     -1.188260     -0.827954
  H      -2.627145     -1.734664      0.641374
  C      -0.875830      0.391228     -1.747471
  C       0.451157      0.226760     -2.274737
  H      -1.688589      0.764520     -2.363654
  C       1.543513      0.266782     -1.416963
  C       2.740534     -0.026234     -2.129616
  S       0.875330     -0.113290     -3.887977
  C       2.528719     -0.246241     -3.457340
  H       1.573428      1.249154     -0.593532
  H       3.725773     -0.019340     -1.686492
  H       3.264040     -0.457364     -4.218923
  H      -0.734316     -3.222300     -0.216019
  H      -0.884560     -2.397741      2.372752
  H       1.562012     -1.543355      3.092787
  O       1.536130      2.353826      0.169077
  O       0.551140      0.975743      1.615531
  C       1.027971      2.110334      1.276499
  C       0.983597      3.184237      2.322759
  H       0.938148      4.169481      1.866231
  H       1.900206      3.137081      2.913945
  H       0.145999      3.045366      3.001796
  H       3.233190     -1.906305      1.032135
  H       1.790841     -2.914178     -1.037011
39
Coordinates from ORCA-job reaction4-IEIP_ts_guess_scan_6-11_orca E -1288.399701505067
  Ir      0.603967     -0.736758      0.482733
  C       0.077529     -2.830980      0.378818
  C      -0.015932     -2.364570      1.737676
  C       2.173870     -2.123846      1.041360
  C       1.408683     -2.669466     -0.053905
  C       1.296704     -1.967032      2.135919
  N      -1.039937      0.119933     -0.504905
  C      -2.319373      0.372530      0.179636
  C      -3.096400      1.549510     -0.392269
  H      -3.927795      1.779608      0.272528
  H      -3.530970      1.336647     -1.369847
  H      -2.481383      2.446433     -0.468657
  C      -3.156184     -0.901631      0.182518
  H      -2.045773      0.613440      1.207879
  H      -4.069955     -0.742533      0.753451
  H      -3.441866     -1.187715     -0.830594
  H      -2.627551     -1.737292      0.638542
  C      -0.874668      0.391181     -1.745708
  C       0.451454      0.225547     -2.273210
  H      -1.687650      0.764064     -2.361936
  C       1.544865      0.261303     -1.416626
  C       2.741684     -0.026199     -2.131275
  S       0.874449     -0.111393     -3.887581
  C       2.529053     -0.236688     -3.460644
  H       1.576393      1.243368     -0.593428
  H       3.727315     -0.020062     -1.689136
  H       3.264164     -0.440289     -4.224506
  H      -0.735162     -3.222145     -0.216062
  H      -0.888678     -2.396570      2.372534
  H       1.557706     -1.543119      3.095330
  O       1.540046      2.349152      0.167613
  O       0.550831      0.975548      1.614057
  C       1.029309      2.108735      1.274172
  C       0.983873      3.185585      2.317746
  H       0.939215      4.169574      1.858474
  H       1.899749      3.139775      2.910150
  H       0.145430      3.048859      2.996195
  H       3.231284     -1.907864      1.037397
  H       1.791073     -2.915450     -1.033699
39
Coordinates from ORCA-job reaction4-IEIP_ts_guess_scan_6-11_orca E -1288.399703720688
  Ir      0.604529     -0.736478      0.482386
  C       0.079211     -2.830899      0.376446
  C      -0.015053     -2.365216      1.735610
  C       2.175018     -2.123282      1.040631
  C       1.410500     -2.668461     -0.055384
  C       1.297378     -1.967586      2.134883
  N      -1.040356      0.120688     -0.504771
  C      -2.319515      0.373319      0.180164
  C      -3.096340      1.550430     -0.391764
  H      -3.927569      1.780811      0.273164
  H      -3.531055      1.337597     -1.369277
  H      -2.481087      2.447162     -0.468367
  C      -3.156395     -0.900789      0.182979
  H      -2.045713      0.614242      1.208327
  H      -4.070157     -0.741742      0.753967
  H      -3.442141     -1.186758     -0.830145
  H      -2.627832     -1.736549      0.638827
  C      -0.875452      0.391325     -1.745956
  C       0.450970      0.225954     -2.273059
  H      -1.688403      0.763948     -2.362317
  C       1.544306      0.263372     -1.416587
  C       2.740985     -0.027183     -2.130147
  S       0.874291     -0.113990     -3.886931
  C       2.528339     -0.241512     -3.458965
  H       1.576117      1.244216     -0.593067
  H       3.726552     -0.020618     -1.687867
  H       3.263387     -0.448090     -4.222091
  H      -0.732964     -3.222100     -0.219109
  H      -0.888056     -2.398038      2.370079
  H       1.557801     -1.544264      3.094712
  O       1.539840      2.349907      0.168114
  O       0.551159      0.975577      1.614471
  C       1.029009      2.109397      1.274555
  C       0.982553      3.185907      2.318421
  H       0.936594      4.169850      1.859159
  H       1.898668      3.141116      2.910523
  H       0.144477      3.048186      2.997099
  H       3.232321     -1.906738      1.037228
  H       1.793453     -2.913521     -1.035200
39
Coordinates from ORCA-job reaction4-IEIP_ts_guess_scan_6-11_orca E -1288.399706171449
  Ir      0.604951     -0.736492      0.482542
  C       0.080749     -2.830982      0.374374
  C      -0.015852     -2.365938      1.733709
  C       2.175344     -2.123012      1.042548
  C       1.412720     -2.667784     -0.054989
  C       1.295890     -1.968227      2.135427
  N      -1.040265      0.121133     -0.504056
  C      -2.319258      0.373182      0.181298
  C      -3.095760      1.551153     -0.389423
  H      -3.926756      1.781231      0.275913
  H      -3.530675      1.339452     -1.367087
  H      -2.480147      2.447688     -0.465346
  C      -3.156340     -0.900778      0.182406
  H      -2.045473      0.613027      1.209695
  H      -4.070305     -0.742353      0.753262
  H      -3.441794     -1.185494     -0.831156
  H      -2.628100     -1.737244      0.637315
  C      -0.875885      0.391774     -1.745488
  C       0.450461      0.226715     -2.272821
  H      -1.689068      0.764249     -2.361594
  C       1.544129      0.263146     -1.416839
  C       2.740335     -0.028374     -2.130597
  S       0.873378     -0.113009     -3.887136
  C       2.526977     -0.243177     -3.459344
  H       1.577683      1.242906     -0.592343
  H       3.726082     -0.022487     -1.688725
  H       3.261625     -0.450711     -4.222602
  H      -0.730165     -3.222267     -0.222835
  H      -0.889823     -2.399475      2.366809
  H       1.554681     -1.545376      3.095905
  O       1.542750      2.348955      0.168381
  O       0.551396      0.975899      1.614349
  C       1.029891      2.109635      1.274156
  C       0.981377      3.187004      2.317001
  H       0.934142      4.170322      1.856495
  H       1.897376      3.144228      2.909409
  H       0.143243      3.048860      2.995491
  H       3.232567     -1.906070      1.041003
  H       1.797289     -2.912115     -1.034364
