! Opt PBEh-3c
%geom Constraints
{ B 0 20 2.1285714285714286 C }
{ B 24 30 1.4428571428571428 C }
    end
end
%output 
xyzfile=True 
end 
%scf 
maxiter 250 
end
%output
Print[P_Hirshfeld] = 1
end
% maxcore
4000
*xyz 1 1
Ir   0.62943973  -0.71754102   0.42113590 
C    0.14035399  -2.83230879   0.31723503 
C    0.00263281  -2.37958354   1.67654593 
C    2.20319428  -2.07875882   1.03472873 
C    1.48134998  -2.64766916  -0.07558304 
C    1.28721003  -1.94514546   2.10616801 
N   -1.05187746   0.13255161  -0.51453261 
C   -2.31363817   0.38563636   0.19797581 
C   -3.09377561   1.57421298  -0.34471928 
H   -3.91436705   1.79722927   0.33568647 
H   -3.54297412   1.37752983  -1.31909373 
H   -2.47591658   2.46956579  -0.41618367 
C   -3.15585462  -0.88541644   0.19876837 
H   -2.01667671   0.61031779   1.22317923 
H   -4.05139449  -0.73441567   0.79993087 
H   -3.47253995  -1.14915153  -0.81113930 
H   -2.61667081  -1.73228980   0.62050140 
C   -0.90444256   0.41245025  -1.75574827 
C    0.41998789   0.21536386  -2.27487047 
H   -1.71258229   0.80860834  -2.36260328 
C    1.48235461   0.16821666  -1.36857684 
C    2.69655670  -0.12864024  -2.06313171 
S    0.88386783  -0.08658743  -3.87604619 
C    2.52137004  -0.28761475  -3.40208572 
H    1.55113050   1.16824051  -0.65440287 
H    3.66701325  -0.16423047  -1.58977424 
H    3.27258477  -0.48909534  -4.15054305 
H   -0.64586932  -3.24454773  -0.29850603 
H   -0.88678378  -2.42815991   2.28635923 
H    1.51106635  -1.51345704   3.07149387 
O    1.52616531   2.39202704   0.13615932 
O    0.56161094   0.98552816   1.56768033 
C    1.02359688   2.13376268   1.23615648 
C    0.95612835   3.19285326   2.29948495 
H    0.91009430   4.18373147   1.85543627 
H    1.86394578   3.14333954   2.90361869 
H    0.10981185   3.04027820   2.96489099 
H    3.25815483  -1.85431923   1.06786370 
H    1.89511254  -2.89332131  -1.04271919 
*
