39
Generated by autodE on: 2023-08-15. E = -1288.399153 Ha
Ir    0.61886  -0.74339   0.38385
C     0.19181  -2.86513   0.31408
C    -0.11517  -2.44716   1.66046
C     2.12593  -2.03929   1.26767
C     1.57625  -2.65552   0.09925
C     1.06831  -1.95419   2.22959
N    -1.08663   0.10196  -0.50534
C    -2.35199   0.27162   0.22265
C    -3.13564   1.50932  -0.18966
H    -3.96478   1.64779   0.50235
H    -3.57206   1.42458  -1.18582
H    -2.52232   2.40984  -0.15100
C    -3.18780  -0.99548   0.07791
H    -2.06421   0.38660   1.26885
H    -4.08253  -0.92442   0.69514
H    -3.50560  -1.13943  -0.95552
H    -2.64081  -1.88381   0.38996
C    -0.94601   0.49503  -1.71902
C     0.36807   0.31855  -2.25261
H    -1.75428   0.95270  -2.27945
C     1.36379  -0.04049  -1.33400
C     2.59824  -0.23903  -2.03899
S     0.91340   0.43520  -3.85287
C     2.49639  -0.01204  -3.37771
H     1.61931   1.17502  -0.75475
H     3.53501  -0.48253  -1.55844
H     3.28168  -0.06528  -4.11646
H    -0.48927  -3.33250  -0.38184
H    -1.07366  -2.51661   2.15139
H     1.15437  -1.51114   3.21151
O     1.73321   2.33076  -0.02528
O     0.63431   1.05247   1.43132
C     1.17606   2.13941   1.08110
C     1.17299   3.26393   2.07362
H     1.06704   4.22272   1.57170
H     2.13147   3.27528   2.59567
H     0.38670   3.13821   2.81250
H     3.16335  -1.79941   1.44203
H     2.11559  -2.90496  -0.80308
