! Opt PBEh-3c
%geom Constraints
{ B 0 20 2.4714285714285715 C }
{ B 24 30 1.4857142857142858 C }
    end
end
%output 
xyzfile=True 
end 
%scf 
maxiter 250 
end
%output
Print[P_Hirshfeld] = 1
end
% maxcore
4000
*xyz 1 1
Ir   0.59241033  -0.72022230   0.44229484 
C    0.03671389  -2.80223360   0.32843433 
C    0.13060355  -2.35241952   1.69690505 
C    2.20661593  -2.13372482   0.72772501 
C    1.29626971  -2.64111527  -0.27438551 
C    1.50056629  -1.99675247   1.93519944 
N   -1.04282940   0.18418567  -0.52280442 
C   -2.30876643   0.52682550   0.14277778 
C   -3.13321335   1.55649756  -0.61198057 
H   -3.96342114   1.87213612   0.01827768 
H   -3.57263336   1.15977975  -1.52875690 
H   -2.55477753   2.44863653  -0.85429082 
C   -3.10491164  -0.74450081   0.41015659 
H   -2.00867373   0.95714689   1.09971354 
H   -4.01400052  -0.49667369   0.95589588 
H   -3.39829616  -1.23203461  -0.52052441 
H   -2.54897709  -1.45733208   1.01753241 
C   -0.83319911   0.39008987  -1.76373946 
C    0.52045518   0.14513721  -2.22136839 
H   -1.60267790   0.76120825  -2.43457600 
C    1.62918421   0.53077723  -1.47648934 
C    2.82999730   0.08850603  -2.10454978 
S    0.93766614  -0.69353438  -3.64900845 
C    2.60947934  -0.57597260  -3.26883751 
H    1.55107412   1.39608159  -0.71155046 
H    3.81836894   0.30554145  -1.72639952 
H    3.34147466  -0.98802359  -3.94688378 
H   -0.85782385  -3.16297125  -0.15862593 
H   -0.65198705  -2.38546721   2.44075384 
H    1.89588017  -1.60508875   2.86143949 
O    1.26009285   2.48319319   0.28017443 
O    0.53930038   0.89272041   1.66978741 
C    0.87994706   2.10976113   1.38309905 
C    0.80455679   3.05896477   2.54748769 
H    0.74267922   4.08656159   2.19969621 
H    1.71219067   2.96288585   3.14649700 
H   -0.03673757   2.83527345   3.20033774 
H    3.25007564  -1.90239008   0.57308255 
H    1.54669344  -2.86226304  -1.30175666 
*
