39
Coordinates from ORCA-job reaction4-IEIP_ts_guess_scan_11-12_orca E -1288.404451243013
  Ir      0.609413     -0.727305      0.429103
  C       0.144305     -2.838635      0.335781
  C      -0.092268     -2.383002      1.681804
  C       2.147087     -2.058665      1.188515
  C       1.513937     -2.649664      0.042190
  C       1.148413     -1.926016      2.193277
  N      -1.072397      0.112850     -0.511835
  C      -2.349411      0.301002      0.194480
  C      -3.143218      1.508394     -0.284320
  H      -3.976471      1.674140      0.396722
  H      -3.575171      1.367079     -1.275955
  H      -2.539565      2.416204     -0.290438
  C      -3.172019     -0.979271      0.101343
  H      -2.075543      0.469090      1.237125
  H      -4.080991     -0.881636      0.693624
  H      -3.465592     -1.183153     -0.929214
  H      -2.627583     -1.844504      0.476211
  C      -0.923137      0.463270     -1.730219
  C       0.391781      0.297285     -2.256124
  H      -1.734690      0.884698     -2.315074
  C       1.435648      0.073756     -1.361555
  C       2.644736     -0.164265     -2.080043
  S       0.871552      0.247900     -3.885647
  C       2.485139     -0.094398     -3.431841
  H       1.628074      1.145218     -0.581811
  H       3.606048     -0.322537     -1.612993
  H       3.242769     -0.207274     -4.192481
  H      -0.587313     -3.274284     -0.328903
  H      -1.022087     -2.434936      2.227386
  H       1.296636     -1.480284      3.166820
  O       1.770760      2.264289      0.119917
  O       0.565417      1.037637      1.514084
  C       1.156881      2.109419      1.193686
  C       1.133317      3.237809      2.180515
  H       1.013214      4.190331      1.669078
  H       2.091681      3.271961      2.701417
  H       0.347154      3.107655      2.918562
  H       3.195858     -1.830246      1.298404
  H       1.997006     -2.900720     -0.890853
39
Coordinates from ORCA-job reaction4-IEIP_ts_guess_scan_11-12_orca E -1288.404721438612
  Ir      0.609209     -0.727752      0.426970
  C       0.143310     -2.841054      0.337475
  C      -0.090414     -2.386705      1.684305
  C       2.146815     -2.060993      1.186980
  C       1.512227     -2.652623      0.041847
  C       1.149676     -1.928775      2.192767
  N      -1.075192      0.111531     -0.510019
  C      -2.351613      0.300548      0.197274
  C      -3.144245      1.508651     -0.281682
  H      -3.977584      1.675024      0.399076
  H      -3.575872      1.367772     -1.273539
  H      -2.539921      2.416042     -0.287533
  C      -3.175510     -0.978853      0.104115
  H      -2.077443      0.468364      1.239897
  H      -4.084376     -0.880364      0.696411
  H      -3.469398     -1.182402     -0.926433
  H      -2.632001     -1.844675      0.478914
  C      -0.922875      0.463251     -1.733525
  C       0.395840      0.299175     -2.261969
  H      -1.733827      0.886067     -2.318146
  C       1.436270      0.069895     -1.364830
  C       2.646879     -0.168579     -2.081347
  S       0.880208      0.256772     -3.890521
  C       2.491341     -0.093121     -3.433397
  H       1.633995      1.154151     -0.586697
  H       3.606745     -0.330111     -1.612245
  H       3.250923     -0.205449     -4.192094
  H      -0.589277     -3.277272     -0.325793
  H      -1.018916     -2.439527      2.231927
  H       1.299384     -1.483402      3.166234
  O       1.773697      2.272228      0.117213
  O       0.564276      1.039359      1.513828
  C       1.157094      2.112722      1.192967
  C       1.130194      3.240482      2.180000
  H       1.009285      4.193051      1.668763
  H       2.087632      3.275883      2.702495
  H       0.342970      3.108500      2.916484
  H       3.195871     -1.833512      1.296068
  H       1.993992     -2.905110     -0.891498
39
Coordinates from ORCA-job reaction4-IEIP_ts_guess_scan_11-12_orca E -1288.404842295179
  Ir      0.608639     -0.728313      0.426591
  C       0.139073     -2.842289      0.343567
  C      -0.091018     -2.388673      1.690949
  C       2.144537     -2.064200      1.188471
  C       1.507643     -2.656305      0.045211
  C       1.149156     -1.930982      2.195593
  N      -1.075565      0.110828     -0.508262
  C      -2.351748      0.299316      0.197832
  C      -3.144200      1.506742     -0.283090
  H      -3.979119      1.673020      0.395798
  H      -3.573376      1.365012     -1.275878
  H      -2.540414      2.414481     -0.288189
  C      -3.174688     -0.980669      0.104871
  H      -2.078110      0.467804      1.240468
  H      -4.084149     -0.882452      0.696339
  H      -3.467499     -1.185134     -0.925768
  H      -2.630761     -1.845801      0.480798
  C      -0.922057      0.465328     -1.733426
  C       0.397335      0.303105     -2.265888
  H      -1.733664      0.889520     -2.315909
  C       1.434824      0.063180     -1.368339
  C       2.646604     -0.172282     -2.084265
  S       0.883915      0.270314     -3.893968
  C       2.494446     -0.082073     -3.435866
  H       1.640741      1.162183     -0.594474
  H       3.605286     -0.339154     -1.614538
  H       3.255917     -0.187794     -4.193606
  H      -0.595204     -3.278395     -0.317877
  H      -1.018307     -2.440597      2.240656
  H       1.301179     -1.485435      3.168624
  O       1.776391      2.277869      0.114008
  O       0.564937      1.040144      1.511806
  C       1.157520      2.113791      1.190687
  C       1.130228      3.240605      2.177901
  H       1.008838      4.193479      1.667313
  H       2.087568      3.276126      2.700628
  H       0.342847      3.107262      2.913871
  H       3.194162     -1.838939      1.296512
  H       1.987465     -2.911433     -0.888411
39
Coordinates from ORCA-job reaction4-IEIP_ts_guess_scan_11-12_orca E -1288.404915827693
  Ir      0.608303     -0.730071      0.427018
  C       0.134428     -2.843738      0.351526
  C      -0.092586     -2.390428      1.699248
  C       2.141970     -2.068086      1.192146
  C       1.503003     -2.660706      0.050667
  C       1.147922     -1.933197      2.200480
  N      -1.074967      0.109702     -0.508306
  C      -2.351857      0.296495      0.196467
  C      -3.145864      1.503222     -0.283892
  H      -3.981788      1.667669      0.394200
  H      -3.573717      1.361667     -1.277236
  H      -2.543461      2.411891     -0.287567
  C      -3.173418     -0.984352      0.102819
  H      -2.079010      0.464586      1.239429
  H      -4.083488     -0.887206      0.693545
  H      -3.465027     -1.189054     -0.928099
  H      -2.628758     -1.848758      0.479244
  C      -0.920520      0.469063     -1.732488
  C       0.398351      0.309780     -2.267942
  H      -1.732528      0.896382     -2.311905
  C       1.433043      0.055392     -1.371222
  C       2.645919     -0.174981     -2.087212
  S       0.889502      0.302717     -3.894803
  C       2.495774     -0.070975     -3.438118
  H       1.648255      1.169409     -0.604092
  H       3.602837     -0.352819     -1.617939
  H       3.257894     -0.173432     -4.195675
  H      -0.601453     -3.279570     -0.308312
  H      -1.019092     -2.440519      2.250399
  H       1.302154     -1.486967      3.172864
  O       1.778657      2.282129      0.110016
  O       0.567683      1.041455      1.508718
  C       1.159075      2.114522      1.187423
  C       1.132527      3.241773      2.173764
  H       1.010410      4.194530      1.663130
  H       2.090269      3.277782      2.695751
  H       0.345719      3.108066      2.910279
  H       3.192187     -1.845347      1.299460
  H       1.981022     -2.918835     -0.883047
39
Coordinates from ORCA-job reaction4-IEIP_ts_guess_scan_11-12_orca E -1288.404975128611
  Ir      0.607786     -0.735010      0.428513
  C       0.127294     -2.846687      0.361979
  C      -0.096950     -2.392296      1.709616
  C       2.137592     -2.075116      1.198583
  C       1.496399     -2.668334      0.058994
  C       1.144557     -1.936508      2.207891
  N      -1.073231      0.107935     -0.509107
  C      -2.351178      0.292875      0.194655
  C      -3.146857      1.499430     -0.283494
  H      -3.983078      1.661437      0.394746
  H      -3.574486      1.359113     -1.277103
  H      -2.545708      2.408971     -0.285365
  C      -3.171859     -0.988467      0.099416
  H      -2.079153      0.459685      1.238125
  H      -4.082603     -0.892330      0.689238
  H      -3.462097     -1.192657     -0.932001
  H      -2.626940     -1.852583      0.475948
  C      -0.918391      0.472825     -1.730756
  C       0.398438      0.313673     -2.268618
  H      -1.730788      0.903159     -2.307373
  C       1.430732      0.043551     -1.373547
  C       2.645443     -0.176415     -2.089841
  S       0.891959      0.324425     -3.894555
  C       2.499557     -0.044185     -3.438861
  H       1.654494      1.172921     -0.616936
  H       3.600979     -0.363247     -1.621351
  H       3.264403     -0.130321     -4.195748
  H      -0.610374     -3.281753     -0.296393
  H      -1.023210     -2.438588      2.261456
  H       1.301162     -1.488701      3.179177
  O       1.778324      2.283631      0.101458
  O       0.573514      1.041533      1.503986
  C       1.161533      2.113866      1.180779
  C       1.137565      3.243322      2.164941
  H       1.012755      4.195191      1.653365
  H       2.097068      3.281168      2.683566
  H       0.353481      3.109958      2.904485
  H       3.188572     -1.855803      1.305363
  H       1.972665     -2.930479     -0.874488
39
Coordinates from ORCA-job reaction4-IEIP_ts_guess_scan_11-12_orca E -1288.405002768898
  Ir      0.607297     -0.738143      0.428935
  C       0.125003     -2.848013      0.364879
  C      -0.100105     -2.392450      1.712046
  C       2.135313     -2.077222      1.202291
  C       1.494779     -2.671109      0.062747
  C       1.141477     -1.936843      2.210991
  N      -1.072174      0.106373     -0.510102
  C      -2.350127      0.290582      0.194341
  C      -3.146250      1.497403     -0.282149
  H      -3.981743      1.658485      0.397170
  H      -3.574983      1.358043     -1.275459
  H      -2.545286      2.407082     -0.283667
  C      -3.170696     -0.990747      0.098201
  H      -2.077923      0.456589      1.237909
  H      -4.081566     -0.894829      0.687825
  H      -3.460638     -1.194403     -0.933413
  H      -2.625919     -1.855072      0.474471
  C      -0.917736      0.474558     -1.729661
  C       0.398340      0.315790     -2.267021
  H      -1.729751      0.907647     -2.304922
  C       1.430403      0.039787     -1.373324
  C       2.645609     -0.175257     -2.090151
  S       0.894310      0.342592     -3.891970
  C       2.500046     -0.035751     -3.438578
  H       1.655434      1.172257     -0.622210
  H       3.600420     -0.368102     -1.622678
  H       3.264817     -0.119001     -4.195874
  H      -0.612418     -3.283026     -0.293821
  H      -1.027146     -2.436911      2.262721
  H       1.297754     -1.487824      3.181756
  O       1.776390      2.283085      0.096492
  O       0.576327      1.040884      1.500461
  C       1.161983      2.113370      1.176460
  C       1.139579      3.243854      2.160058
  H       1.012972      4.195293      1.648191
  H       2.100260      3.282619      2.676426
  H       0.357393      3.110665      2.901684
  H       3.186354     -1.858527      1.309786
  H       1.971572     -2.934539     -0.870100
39
Coordinates from ORCA-job reaction4-IEIP_ts_guess_scan_11-12_orca E -1288.405014656866
  Ir      0.607126     -0.740775      0.429062
  C       0.124618     -2.849510      0.365566
  C      -0.102293     -2.392610      1.712145
  C       2.134070     -2.078329      1.205175
  C       1.495039     -2.673074      0.065209
  C       1.138903     -1.936789      2.212677
  N      -1.072007      0.105177     -0.510459
  C      -2.349743      0.289122      0.194937
  C      -3.145399      1.496984     -0.279597
  H      -3.980149      1.657549      0.400780
  H      -3.575179      1.359273     -1.272688
  H      -2.543989      2.406373     -0.280367
  C      -3.170987     -0.991617      0.097090
  H      -2.077179      0.453752      1.238609
  H      -4.081941     -0.895725      0.686599
  H      -3.460833     -1.193903     -0.934813
  H      -2.626969     -1.856781      0.472456
  C      -0.917673      0.475353     -1.729016
  C       0.398427      0.315929     -2.265465
  H      -1.728978      0.910125     -2.303988
  C       1.430813      0.038235     -1.372465
  C       2.646214     -0.173790     -2.089740
  S       0.895168      0.348758     -3.890075
  C       2.500750     -0.030568     -3.437866
  H       1.654502      1.170653     -0.625250
  H       3.600889     -0.368570     -1.622815
  H       3.265546     -0.111290     -4.195409
  H      -0.611911     -3.284995     -0.293827
  H      -1.030259     -2.436123      2.261344
  H       1.294015     -1.486801      3.183164
  O       1.773962      2.282784      0.091686
  O       0.578736      1.040050      1.497920
  C       1.162387      2.113235      1.172710
  C       1.140752      3.244085      2.156186
  H       1.011934      4.195180      1.644244
  H       2.102532      3.283960      2.670398
  H       0.360409      3.110443      2.899681
  H       3.184970     -1.859428      1.313753
  H       1.973101     -2.937152     -0.866809
39
Coordinates from ORCA-job reaction4-IEIP_ts_guess_scan_11-12_orca E -1288.405020082379
  Ir      0.607098     -0.742276      0.428883
  C       0.124837     -2.850654      0.365548
  C      -0.103892     -2.392869      1.711640
  C       2.133142     -2.078752      1.207520
  C       1.495769     -2.674330      0.067081
  C       1.136564     -1.936694      2.213713
  N      -1.072017      0.104594     -0.510266
  C      -2.349473      0.288366      0.195697
  C      -3.144723      1.496983     -0.277599
  H      -3.979185      1.657209      0.403232
  H      -3.574851      1.360445     -1.270700
  H      -2.542996      2.406161     -0.277630
  C      -3.171083     -0.992014      0.096603
  H      -2.076575      0.452013      1.239421
  H      -4.082092     -0.896306      0.686071
  H      -3.460879     -1.193289     -0.935504
  H      -2.627464     -1.857758      0.471221
  C      -0.917700      0.475910     -1.728561
  C       0.398632      0.316154     -2.264797
  H      -1.728555      0.911728     -2.303342
  C       1.431156      0.037612     -1.372094
  C       2.646518     -0.173162     -2.089834
  S       0.895414      0.351411     -3.889323
  C       2.501093     -0.027817     -3.437759
  H       1.653869      1.170474     -0.627630
  H       3.601194     -0.368741     -1.623242
  H       3.265883     -0.107160     -4.195452
  H      -0.610666     -3.286830     -0.294527
  H      -1.032640     -2.436076      2.259547
  H       1.290327     -1.486131      3.184139
  O       1.772246      2.283547      0.088022
  O       0.580367      1.039557      1.496118
  C       1.162578      2.113458      1.169978
  C       1.141350      3.243937      2.153873
  H       1.010851      4.195031      1.642343
  H       2.103907      3.284451      2.666578
  H       0.362298      3.109435      2.898552
  H       3.183857     -1.859537      1.317314
  H       1.975211     -2.938889     -0.864094
39
Coordinates from ORCA-job reaction4-IEIP_ts_guess_scan_11-12_orca E -1288.405024223858
  Ir      0.607336     -0.743295      0.428594
  C       0.125873     -2.851780      0.365156
  C      -0.105218     -2.393391      1.710755
  C       2.132477     -2.078673      1.210266
  C       1.497342     -2.675212      0.069149
  C       1.134045     -1.936591      2.214778
  N      -1.072110      0.104351     -0.509849
  C      -2.349366      0.287853      0.196437
  C      -3.144190      1.497257     -0.275572
  H      -3.978638      1.657007      0.405396
  H      -3.574244      1.362022     -1.268877
  H      -2.542170      2.406241     -0.274492
  C      -3.171337     -0.992171      0.095883
  H      -2.076240      0.450353      1.240276
  H      -4.082388     -0.896858      0.685366
  H      -3.461104     -1.192215     -0.936465
  H      -2.628029     -1.858534      0.469512
  C      -0.917820      0.476519     -1.728063
  C       0.398687      0.316552     -2.264522
  H      -1.728388      0.913130     -2.302610
  C       1.431358      0.037366     -1.372065
  C       2.646479     -0.173095     -2.090457
  S       0.894999      0.352813     -3.889099
  C       2.500835     -0.026565     -3.438205
  H       1.653363      1.171277     -0.630017
  H       3.601254     -0.369125     -1.624240
  H       3.265458     -0.105322     -4.196124
  H      -0.608209     -3.288972     -0.295815
  H      -1.034868     -2.436741      2.257126
  H       1.285940     -1.485602      3.185299
  O       1.770699      2.285016      0.084769
  O       0.582024      1.039303      1.494622
  C       1.162857      2.113918      1.167698
  C       1.141958      3.243700      2.152296
  H       1.009949      4.194996      1.641504
  H       2.105207      3.284655      2.663672
  H       0.364042      3.108083      2.897938
  H       3.182915     -1.858961      1.321715
  H       1.978594     -2.940121     -0.860995
39
Coordinates from ORCA-job reaction4-IEIP_ts_guess_scan_11-12_orca E -1288.405026867109
  Ir      0.607711     -0.743672      0.428243
  C       0.127603     -2.852550      0.364159
  C      -0.106419     -2.394043      1.709306
  C       2.131964     -2.077895      1.213266
  C       1.499631     -2.675327      0.071175
  C       1.131263     -1.936401      2.215791
  N      -1.072135      0.104480     -0.509368
  C      -2.349281      0.287567      0.197076
  C      -3.143826      1.497653     -0.273650
  H      -3.978423      1.656778      0.407279
  H      -3.573595      1.363682     -1.267245
  H      -2.541625      2.406515     -0.271326
  C      -3.171444     -0.992223      0.095072
  H      -2.076031      0.448888      1.241069
  H      -4.082427     -0.897580      0.684769
  H      -3.461341     -1.190939     -0.937497
  H      -2.628158     -1.859142      0.467462
  C      -0.918023      0.477084     -1.727572
  C       0.398464      0.317011     -2.264572
  H      -1.728543      0.914134     -2.301847
  C       1.431337      0.037491     -1.372379
  C       2.646036     -0.173605     -2.091499
  S       0.893889      0.352903     -3.889325
  C       2.499906     -0.026983     -3.439127
  H       1.652944      1.172622     -0.632060
  H       3.600971     -0.369850     -1.625684
  H       3.264176     -0.106050     -4.197365
  H      -0.604694     -3.290885     -0.298022
  H      -1.037134     -2.437945      2.253822
  H       1.280773     -1.485193      3.186579
  O       1.769507      2.286614      0.082459
  O       0.583445      1.039299      1.493581
  C       1.163168      2.114446      1.166179
  C       1.142715      3.243488      2.151558
  H       1.009808      4.195130      1.641624
  H       2.106464      3.284476      2.662001
  H       0.365581      3.106944      2.897832
  H       3.182033     -1.857503      1.326811
  H       1.983079     -2.940226     -0.857837
