39
Coordinates from ORCA-job reaction4-IEIP_ts_guess_scan_13-14_orca E -1288.406426071863
  Ir      0.611948     -0.741533      0.403333
  C       0.166161     -2.853467      0.328810
  C      -0.123934     -2.416918      1.672170
  C       2.123444     -2.047661      1.256594
  C       1.549497     -2.656055      0.094003
  C       1.078695     -1.936532      2.226744
  N      -1.083925      0.100751     -0.509940
  C      -2.357588      0.265683      0.206616
  C      -3.148475      1.493766     -0.221373
  H      -3.981456      1.632967      0.465874
  H      -3.580139      1.396013     -1.218378
  H      -2.542119      2.399265     -0.189243
  C      -3.183959     -1.007784      0.066434
  H      -2.080339      0.392491      1.254322
  H      -4.087371     -0.934902      0.670726
  H      -3.486886     -1.166469     -0.969325
  H      -2.636748     -1.889241      0.396988
  C      -0.938947      0.488319     -1.719093
  C       0.373910      0.320858     -2.246391
  H      -1.748219      0.935577     -2.287103
  C       1.383243     -0.016868     -1.344016
  C       2.607516     -0.216998     -2.053093
  S       0.899934      0.417951     -3.859210
  C       2.488779     -0.009998     -3.395890
  H       1.643689      1.195420     -0.661877
  H       3.550708     -0.452012     -1.581119
  H       3.266126     -0.071121     -4.142497
  H      -0.529683     -3.309195     -0.360262
  H      -1.076104     -2.475689      2.176639
  H       1.181572     -1.488589      3.204959
  O       1.777594      2.289984      0.026600
  O       0.613174      1.056961      1.454292
  C       1.187375      2.125156      1.121288
  C       1.192694      3.260967      2.098420
  H       1.062881      4.211244      1.585273
  H       2.163372      3.294105      2.596280
  H       0.424166      3.136067      2.855539
  H       3.165096     -1.814540      1.413865
  H       2.073688     -2.908783     -0.816220
39
Coordinates from ORCA-job reaction4-IEIP_ts_guess_scan_13-14_orca E -1288.406656196319
  Ir      0.611687     -0.742388      0.400733
  C       0.165618     -2.856562      0.329951
  C      -0.122143     -2.421719      1.674330
  C       2.123315     -2.050447      1.255374
  C       1.548390     -2.659610      0.093736
  C       1.079676     -1.940533      2.226461
  N      -1.086362      0.098961     -0.508232
  C      -2.359268      0.265312      0.209426
  C      -3.148270      1.494596     -0.218522
  H      -3.981277      1.634926      0.468444
  H      -3.579650      1.397615     -1.215747
  H      -2.540651      2.399259     -0.186099
  C      -3.187730     -1.006782      0.069432
  H      -2.081524      0.391625      1.257103
  H      -4.090859     -0.932565      0.673981
  H      -3.491294     -1.164899     -0.966243
  H      -2.641860     -1.889146      0.399724
  C      -0.938460      0.487698     -1.722059
  C       0.377621      0.322310     -2.251701
  H      -1.747211      0.936210     -2.289743
  C       1.383666     -0.020739     -1.347562
  C       2.609498     -0.220642     -2.055133
  S       0.907840      0.425712     -3.863002
  C       2.494537     -0.008161     -3.397415
  H       1.650086      1.202865     -0.664580
  H       3.551374     -0.458482     -1.581761
  H       3.273686     -0.068461     -4.142119
  H      -0.530857     -3.313075     -0.357987
  H      -1.073232     -2.481742      2.180578
  H       1.183598     -1.493215      3.204842
  O       1.780598      2.297830      0.023909
  O       0.611840      1.059017      1.453612
  C       1.187127      2.129065      1.120286
  C       1.188460      3.264695      2.097306
  H       1.058078      4.214836      1.583978
  H       2.157980      3.299424      2.597297
  H       0.418426      3.138235      2.852551
  H       3.165210     -1.818041      1.412184
  H       2.071708     -2.913793     -0.816593
39
Coordinates from ORCA-job reaction4-IEIP_ts_guess_scan_13-14_orca E -1288.406752981169
  Ir      0.611325     -0.742783      0.399472
  C       0.162197     -2.857648      0.334818
  C      -0.122594     -2.424061      1.680031
  C       2.121421     -2.053325      1.256832
  C       1.544810     -2.662982      0.096711
  C       1.079123     -1.943353      2.229180
  N      -1.086498      0.098438     -0.506491
  C      -2.359105      0.264119      0.210277
  C      -3.147635      1.493422     -0.218435
  H      -3.982101      1.633436      0.466864
  H      -3.576758      1.396627     -1.216642
  H      -2.540231      2.398160     -0.184572
  C      -3.187120     -1.008167      0.069738
  H      -2.081716      0.390172      1.258072
  H      -4.090630     -0.934411      0.673811
  H      -3.490016     -1.166271     -0.966106
  H      -2.640962     -1.890336      0.400274
  C      -0.937329      0.490028     -1.721524
  C       0.378974      0.326163     -2.254895
  H      -1.746728      0.939736     -2.287168
  C       1.382171     -0.027090     -1.351769
  C       2.609069     -0.224017     -2.058744
  S       0.911018      0.437680     -3.865199
  C       2.496946      0.000671     -3.399343
  H       1.658198      1.208685     -0.668878
  H       3.549812     -0.466872     -1.585601
  H       3.277649     -0.054675     -4.142775
  H      -0.535572     -3.314293     -0.351695
  H      -1.072798     -2.483597      2.187972
  H       1.184846     -1.496152      3.207424
  O       1.784457      2.303240      0.021055
  O       0.612558      1.060002      1.450634
  C       1.187642      2.130606      1.117763
  C       1.186820      3.265638      2.094584
  H       1.056485      4.215878      1.581392
  H       2.155533      3.300946      2.596152
  H       0.415577      3.137962      2.848303
  H       3.163809     -1.822778      1.412961
  H       2.066725     -2.919607     -0.813743
39
Coordinates from ORCA-job reaction4-IEIP_ts_guess_scan_13-14_orca E -1288.406820532711
  Ir      0.611145     -0.743666      0.398878
  C       0.158128     -2.858124      0.341288
  C      -0.124243     -2.425491      1.687170
  C       2.118945     -2.056234      1.260400
  C       1.540950     -2.666273      0.101637
  C       1.077611     -1.945615      2.233891
  N      -1.086015      0.098289     -0.506106
  C      -2.359404      0.261303      0.209373
  C      -3.149725      1.489989     -0.218005
  H      -3.985496      1.627397      0.466225
  H      -3.577134      1.394067     -1.216997
  H      -2.543954      2.395727     -0.181780
  C      -3.185618     -1.011983      0.067044
  H      -2.082996      0.386221      1.257616
  H      -4.089726     -0.940207      0.670474
  H      -3.487351     -1.169536     -0.969215
  H      -2.638300     -1.893547      0.397229
  C      -0.935703      0.494795     -1.719909
  C       0.379802      0.333107     -2.256109
  H      -1.745503      0.947248     -2.282639
  C       1.380162     -0.034434     -1.355793
  C       2.607748     -0.227444     -2.062574
  S       0.915740      0.465596     -3.863712
  C       2.497299      0.009438     -3.401404
  H       1.668762      1.213852     -0.674245
  H       3.546570     -0.480956     -1.591240
  H       3.278348     -0.043968     -4.144623
  H      -0.540843     -3.314700     -0.344055
  H      -1.074013     -2.483606      2.196064
  H       1.185031     -1.498144      3.211833
  O       1.790244      2.307326      0.018255
  O       0.615718      1.061935      1.446484
  C       1.190489      2.132010      1.114629
  C       1.188333      3.267542      2.090361
  H       1.058762      4.217608      1.576648
  H       2.156274      3.303158      2.593423
  H       0.415863      3.139905      2.842823
  H       3.161846     -1.827878      1.416195
  H       2.061628     -2.925516     -0.808794
39
Coordinates from ORCA-job reaction4-IEIP_ts_guess_scan_13-14_orca E -1288.406879303550
  Ir      0.610591     -0.747169      0.398888
  C       0.151190     -2.859497      0.350159
  C      -0.128909     -2.426736      1.696424
  C       2.114267     -2.061667      1.266549
  C       1.534760     -2.672190      0.109302
  C       1.073642     -1.948580      2.241087
  N      -1.084886      0.098011     -0.506204
  C      -2.359571      0.257296      0.208037
  C      -3.152766      1.485018     -0.216857
  H      -3.989458      1.618618      0.466939
  H      -3.579173      1.390334     -1.216391
  H      -2.549313      2.392209     -0.178004
  C      -3.183448     -1.017290      0.063264
  H      -2.084418      0.380684      1.256876
  H      -4.088310     -0.948031      0.665834
  H      -3.483663     -1.174044     -0.973566
  H      -2.634763     -1.898145      0.392930
  C      -0.933703      0.500833     -1.717165
  C       0.379687      0.338969     -2.256034
  H      -1.743850      0.956488     -2.276815
  C       1.377172     -0.046004     -1.360085
  C       2.606125     -0.230567     -2.066259
  S       0.918000      0.487911     -3.861728
  C       2.499980      0.033085     -3.400796
  H       1.680844      1.216486     -0.683348
  H       3.543065     -0.494769     -1.597184
  H       3.283547     -0.006852     -4.142245
  H      -0.549222     -3.315589     -0.334074
  H      -1.078762     -2.481513      2.205498
  H       1.183005     -1.500075      3.218331
  O       1.796502      2.309041      0.011595
  O       0.622418      1.063292      1.439965
  C       1.195753      2.132239      1.108158
  C       1.193770      3.269876      2.081445
  H       1.064230      4.219123      1.566255
  H       2.161707      3.306420      2.584463
  H       0.421294      3.143421      2.834142
  H       3.157864     -1.836452      1.422195
  H       2.054174     -2.934998     -0.800839
39
Coordinates from ORCA-job reaction4-IEIP_ts_guess_scan_13-14_orca E -1288.406915763254
  Ir      0.609934     -0.749785      0.399033
  C       0.148720     -2.860137      0.353055
  C      -0.132534     -2.426668      1.698961
  C       2.111401     -2.062971      1.270838
  C       1.533050     -2.674202      0.113541
  C       1.069754     -1.948614      2.244677
  N      -1.084435      0.097293     -0.506712
  C      -2.359549      0.254371      0.207661
  C      -3.154377      1.481424     -0.215837
  H      -3.990901      1.613019      0.468518
  H      -3.581222      1.387228     -1.215276
  H      -2.552174      2.389425     -0.176252
  C      -3.182019     -1.020956      0.061459
  H      -2.084809      0.377127      1.256708
  H      -4.087276     -0.952923      0.663539
  H      -3.481432     -1.177268     -0.975678
  H      -2.632769     -1.901549      0.390835
  C      -0.933255      0.504548     -1.715160
  C       0.379404      0.343180     -2.253754
  H      -1.742909      0.963477     -2.272987
  C       1.376106     -0.050273     -1.360777
  C       2.605269     -0.230736     -2.067107
  S       0.920627      0.509126     -3.857054
  C       2.499628      0.041628     -3.400276
  H       1.686629      1.216486     -0.688627
  H       3.540964     -0.503005     -1.600237
  H       3.283040      0.004098     -4.142029
  H      -0.551202     -3.316350     -0.331621
  H      -1.083333     -2.479729      2.206437
  H       1.178527     -1.499163      3.221527
  O       1.799784      2.308405      0.007727
  O       0.626305      1.063581      1.435457
  C       1.198967      2.131940      1.103896
  C       1.197684      3.270851      2.076185
  H       1.068333      4.219651      1.560184
  H       2.165774      3.307496      2.578895
  H       0.425457      3.145525      2.829362
  H       3.154975     -1.838297      1.427490
  H       2.053234     -2.938063     -0.795861
39
Coordinates from ORCA-job reaction4-IEIP_ts_guess_scan_13-14_orca E -1288.406939527996
  Ir      0.609136     -0.752865      0.399211
  C       0.147781     -2.861676      0.354122
  C      -0.136223     -2.426706      1.699177
  C       2.108767     -2.063578      1.275261
  C       1.532964     -2.676143      0.117419
  C       1.065067     -1.947994      2.247261
  N      -1.084858      0.096297     -0.506866
  C      -2.360105      0.251749      0.208167
  C      -3.155850      1.478775     -0.213551
  H      -3.991786      1.608878      0.471825
  H      -3.583690      1.385526     -1.212669
  H      -2.554305      2.387189     -0.173359
  C      -3.181965     -1.023730      0.060096
  H      -2.085366      0.373502      1.257325
  H      -4.087510     -0.956510      0.661843
  H      -3.480882     -1.178926     -0.977343
  H      -2.632855     -1.904668      0.388654
  C      -0.933481      0.507435     -1.713433
  C       0.379234      0.345739     -2.251021
  H      -1.742114      0.969204     -2.270367
  C       1.375805     -0.052607     -1.360086
  C       2.605063     -0.229692     -2.066744
  S       0.922024      0.521784     -3.852943
  C       2.499938      0.049899     -3.398756
  H       1.690235      1.215172     -0.693969
  H       3.540170     -0.506547     -1.601432
  H       3.283481      0.015838     -4.140540
  H      -0.550663     -3.318726     -0.331511
  H      -1.088380     -2.478605      2.204226
  H       1.171955     -1.497475      3.223796
  O       1.802427      2.306965      0.002738
  O       0.630064      1.063387      1.431087
  C       1.202469      2.131433      1.098961
  C       1.202108      3.271308      2.070522
  H       1.072433      4.219633      1.553760
  H       2.170632      3.308098      2.572360
  H       0.430575      3.146940      2.824586
  H       3.152010     -1.838495      1.433644
  H       2.055064     -2.940617     -0.790711
39
Coordinates from ORCA-job reaction4-IEIP_ts_guess_scan_13-14_orca E -1288.406956039034
  Ir      0.608366     -0.755504      0.399176
  C       0.147965     -2.863717      0.354456
  C      -0.139606     -2.427229      1.698480
  C       2.106292     -2.063588      1.279967
  C       1.533944     -2.677976      0.121431
  C       1.059898     -1.947302      2.249402
  N      -1.085672      0.095365     -0.506400
  C      -2.360829      0.249574      0.209155
  C      -3.156966      1.476897     -0.210916
  H      -3.992586      1.605842      0.475092
  H      -3.585300      1.384784     -1.209932
  H      -2.555769      2.385499     -0.169790
  C      -3.182379     -1.025834      0.059071
  H      -2.085916      0.370143      1.258396
  H      -4.088135     -0.959401      0.660609
  H      -3.480974     -1.179574     -0.978664
  H      -2.633532     -1.907341      0.386487
  C      -0.933967      0.509861     -1.711779
  C       0.379158      0.348118     -2.248851
  H      -1.741667      0.974006     -2.268035
  C       1.375578     -0.053765     -1.359293
  C       2.604783     -0.228544     -2.066635
  S       0.922540      0.530677     -3.849944
  C       2.500079      0.056950     -3.397603
  H       1.693307      1.214612     -0.699551
  H       3.539657     -0.508151     -1.602508
  H       3.283785      0.025953     -4.139346
  H      -0.548350     -3.322298     -0.332307
  H      -1.093211     -2.478699      2.200846
  H       1.164073     -1.495871      3.225788
  O       1.805243      2.306218     -0.002510
  O       0.633264      1.063252      1.426826
  C       1.205850      2.131110      1.093945
  C       1.206211      3.271218      2.065334
  H       1.076157      4.219332      1.548273
  H       2.175128      3.307981      2.566404
  H       0.435270      3.147233      2.820056
  H       3.149008     -1.837614      1.440628
  H       2.058672     -2.943029     -0.785018
39
Coordinates from ORCA-job reaction4-IEIP_ts_guess_scan_13-14_orca E -1288.406968361666
  Ir      0.607841     -0.757277      0.398959
  C       0.149363     -2.865825      0.354342
  C      -0.142432     -2.428182      1.697277
  C       2.104181     -2.062826      1.285041
  C       1.536038     -2.679293      0.125671
  C       1.054599     -1.946585      2.251394
  N      -1.086632      0.094796     -0.505616
  C      -2.361726      0.247856      0.210136
  C      -3.158012      1.475692     -0.208148
  H      -3.993704      1.603450      0.478010
  H      -3.586211      1.385033     -1.207349
  H      -2.557033      2.384367     -0.165496
  C      -3.183102     -1.027380      0.057774
  H      -2.086684      0.366899      1.259521
  H      -4.088950     -0.962026      0.659311
  H      -3.481583     -1.179221     -0.980265
  H      -2.634373     -1.909564      0.383536
  C      -0.934617      0.511902     -1.710289
  C       0.378888      0.350439     -2.247540
  H      -1.741714      0.977737     -2.265946
  C       1.375147     -0.054026     -1.358865
  C       2.604117     -0.227790     -2.067245
  S       0.921981      0.536634     -3.848236
  C       2.499507      0.061739     -3.397373
  H       1.696059      1.215327     -0.704950
  H       3.539011     -0.508878     -1.604029
  H       3.283210      0.032659     -4.139190
  H      -0.544272     -3.326487     -0.333714
  H      -1.097527     -2.479977      2.196786
  H       1.155378     -1.494470      3.227808
  O       1.808438      2.306343     -0.007057
  O       0.635925      1.063510      1.422978
  C       1.209177      2.131104      1.089596
  C       1.210136      3.270829      2.061362
  H       1.079961      4.219079      1.544550
  H       2.179314      3.307248      2.561955
  H       0.439526      3.146767      2.816386
  H       3.146203     -1.835607      1.448459
  H       2.063941     -2.944805     -0.778804
39
Coordinates from ORCA-job reaction4-IEIP_ts_guess_scan_13-14_orca E -1288.406976997264
  Ir      0.607542     -0.757985      0.398577
  C       0.152069     -2.867536      0.353630
  C      -0.144820     -2.429379      1.695441
  C       2.102375     -2.060889      1.290647
  C       1.539365     -2.679506      0.130136
  C       1.049040     -1.945656      2.253381
  N      -1.087579      0.094631     -0.504787
  C      -2.362687      0.246476      0.210925
  C      -3.158970      1.475005     -0.205285
  H      -3.995042      1.601402      0.480659
  H      -3.586557      1.386180     -1.204907
  H      -2.558114      2.383658     -0.160534
  C      -3.183928     -1.028552      0.055975
  H      -2.087628      0.363580      1.260535
  H      -4.089651     -0.964729      0.657870
  H      -3.482644     -1.177973     -0.982347
  H      -2.634994     -1.911476      0.379387
  C      -0.935517      0.513409     -1.709087
  C       0.378126      0.352486     -2.247143
  H      -1.742478      0.980140     -2.264174
  C       1.374336     -0.053589     -1.359012
  C       2.602850     -0.227680     -2.068680
  S       0.920156      0.539707     -3.847850
  C       2.497911      0.063778     -3.398266
  H       1.698285      1.217237     -0.709866
  H       3.537930     -0.509339     -1.606154
  H       3.281336      0.035227     -4.140387
  H      -0.538244     -3.330680     -0.336066
  H      -1.101560     -2.482224      2.191693
  H       1.145615     -1.493082      3.230004
  O       1.812039      2.307034     -0.010293
  O       0.637908      1.064270      1.419663
  C       1.212431      2.131367      1.086344
  C       1.214225      3.270249      2.058998
  H       1.084520      4.219014      1.542977
  H       2.183522      3.305741      2.559439
  H       0.443637      3.145955      2.813983
  H       3.143500     -1.832003      1.457416
  H       2.071063     -2.945079     -0.772101
39
Coordinates from ORCA-job reaction4-IEIP_ts_guess_scan_13-14_orca E -1288.406982761418
  Ir      0.607397     -0.757685      0.398104
  C       0.156474     -2.868645      0.352089
  C      -0.146924     -2.430831      1.692694
  C       2.100808     -2.057304      1.297297
  C       1.544397     -2.678093      0.135074
  C       1.042850     -1.944342      2.255627
  N      -1.088582      0.094655     -0.504127
  C      -2.363782      0.245122      0.211488
  C      -3.159738      1.474767     -0.201935
  H      -3.996333      1.599539      0.483657
  H      -3.586503      1.388543     -1.202129
  H      -2.558748      2.383184     -0.154379
  C      -3.185107     -1.029492      0.053245
  H      -2.088829      0.359535      1.261433
  H      -4.090376     -0.967737      0.656028
  H      -3.484599     -1.175545     -0.985340
  H      -2.635722     -1.913413      0.373181
  C      -0.936911      0.514157     -1.708292
  C       0.376579      0.353918     -2.247586
  H      -1.744224      0.980977     -2.262825
  C       1.372975     -0.052749     -1.359799
  C       2.600815     -0.228267     -2.070888
  S       0.916931      0.539911     -3.848694
  C       2.495087      0.063034     -3.400281
  H       1.699641      1.220027     -0.714343
  H       3.536199     -0.509816     -1.608876
  H       3.277929      0.033759     -4.142982
  H      -0.529560     -3.334663     -0.339905
  H      -1.105690     -2.485495      2.184836
  H       1.134005     -1.491504      3.232644
  O       1.816091      2.307840     -0.012131
  O       0.639163      1.065599      1.416855
  C       1.215756      2.131813      1.084249
  C       1.219065      3.269596      2.058140
  H       1.090653      4.219200      1.543313
  H       2.188393      3.303345      2.558659
  H       0.448241      3.145307      2.812870
  H       3.140720     -1.826075      1.468334
  H       2.080829     -2.942982     -0.764564
39
Coordinates from ORCA-job reaction4-IEIP_ts_guess_scan_13-14_orca E -1288.406986203968
  Ir      0.607254     -0.756458      0.397599
  C       0.163097     -2.869008      0.349369
  C      -0.149078     -2.432656      1.688579
  C       2.099236     -2.051470      1.305836
  C       1.551778     -2.674484      0.140963
  C       1.035245     -1.942476      2.258476
  N      -1.089790      0.094509     -0.503777
  C      -2.365098      0.243348      0.211906
  C      -3.160127      1.474912     -0.197408
  H      -3.997183      1.597721      0.487962
  H      -3.586167      1.392618     -1.198239
  H      -2.558489      2.382684     -0.146120
  C      -3.186973     -1.030397      0.049113
  H      -2.090325      0.353829      1.262319
  H      -4.091301     -0.971395      0.653561
  H      -3.488072     -1.171515     -0.989700
  H      -2.636993     -1.915855      0.363813
  C      -0.939135      0.513775     -1.708040
  C       0.373931      0.354314     -2.248830
  H      -1.747307      0.979844     -2.262023
  C       1.370848     -0.051895     -1.361316
  C       2.597834     -0.229520     -2.073819
  S       0.912187      0.537311     -3.850699
  C       2.490872      0.059785     -3.403378
  H       1.699660      1.223365     -0.718679
  H       3.533623     -0.510418     -1.612201
  H       3.272840      0.028871     -4.146926
  H      -0.517163     -3.338375     -0.346022
  H      -1.110579     -2.490023      2.175066
  H       1.119092     -1.489583      3.236113
  O       1.820711      2.308316     -0.012826
  O       0.639602      1.067651      1.414399
  C       1.219370      2.132390      1.083120
  C       1.225496      3.268983      2.058425
  H       1.099448      4.219679      1.545027
  H       2.194867      3.299848      2.559062
  H       0.454290      3.145394      2.812877
  H       3.137430     -1.816883      1.482630
  H       2.094440     -2.937544     -0.755473
39
Coordinates from ORCA-job reaction4-IEIP_ts_guess_scan_13-14_orca E -1288.406987802340
  Ir      0.606990     -0.754642      0.397251
  C       0.171451     -2.868509      0.345629
  C      -0.151228     -2.434768      1.683360
  C       2.097659     -2.043803      1.315870
  C       1.561016     -2.668780      0.147471
  C       1.026631     -1.940262      2.261871
  N      -1.091237      0.093688     -0.503849
  C      -2.366583      0.240880      0.212254
  C      -3.159750      1.475407     -0.191553
  H      -3.996937      1.596227      0.494013
  H      -3.585549      1.398500     -1.192916
  H      -2.556646      2.381923     -0.135842
  C      -3.189813     -1.031277      0.043628
  H      -2.091997      0.346167      1.263225
  H      -4.092728     -0.975379      0.650462
  H      -3.493360     -1.165876     -0.995348
  H      -2.639458     -1.918967      0.351432
  C      -0.942220      0.511755     -1.708491
  C       0.370291      0.353039     -2.250620
  H      -1.751647      0.976268     -2.262032
  C       1.368087     -0.051724     -1.363403
  C       2.594285     -0.231079     -2.076927
  S       0.906627      0.532554     -3.853421
  C       2.485874      0.055205     -3.406931
  H       1.697714      1.226259     -0.722528
  H       3.530536     -0.510927     -1.615592
  H       3.266891      0.022585     -4.151406
  H      -0.501897     -3.341266     -0.354152
  H      -1.116066     -2.495405      2.162830
  H       1.101765     -1.487600      3.240306
  O       1.825168      2.307969     -0.012839
  O       0.639087      1.070290      1.412493
  C       1.222922      2.132994      1.082749
  C       1.233386      3.268663      2.059186
  H       1.110533      4.220420      1.547006
  H       2.202958      3.295694      2.559664
  H       0.461919      3.146826      2.813673
  H       3.133702     -1.805066      1.499610
  H       2.110991     -2.928794     -0.745393
39
Coordinates from ORCA-job reaction4-IEIP_ts_guess_scan_13-14_orca E -1288.406988630018
  Ir      0.606568     -0.753015      0.397235
  C       0.179295     -2.867480      0.341890
  C      -0.153103     -2.436695      1.678354
  C       2.096238     -2.036496      1.325220
  C       1.569713     -2.662715      0.153258
  C       1.018816     -1.938345      2.265096
  N      -1.092681      0.091972     -0.504189
  C      -2.367921      0.237998      0.212658
  C      -3.158446      1.476076     -0.185350
  H      -3.995270      1.595524      0.500923
  H      -3.584696      1.404970     -1.186953
  H      -2.553167      2.380855     -0.125551
  C      -3.193245     -1.031999      0.038076
  H      -2.093419      0.337890      1.264128
  H      -4.094665     -0.978664      0.647360
  H      -3.499445     -1.159856     -1.000974
  H      -2.643131     -1.922277      0.338921
  C      -0.945466      0.508295     -1.709463
  C       0.366652      0.350132     -2.252267
  H      -1.756138      0.970877     -2.262847
  C       1.365489     -0.052753     -1.365415
  C       2.591331     -0.232119     -2.079207
  S       0.902012      0.527759     -3.855794
  C       2.481723      0.051809     -3.409671
  H       1.694044      1.227424     -0.725254
  H       3.528023     -0.510808     -1.618075
  H       3.262104      0.018625     -4.154792
  H      -0.487662     -3.342793     -0.362252
  H      -1.121131     -2.500198      2.151024
  H       1.085960     -1.486203      3.244329
  O       1.828072      2.306736     -0.013128
  O       0.637901      1.072837      1.411327
  C       1.225567      2.133466      1.082519
  C       1.241001      3.268815      2.059337
  H       1.121091      4.221192      1.547652
  H       2.211045      3.292154      2.559085
  H       0.469739      3.149456      2.814455
  H       3.130212     -1.793926      1.515520
  H       2.126358     -2.919331     -0.736446
39
Coordinates from ORCA-job reaction4-IEIP_ts_guess_scan_13-14_orca E -1288.406990876821
  Ir      0.606165     -0.752404      0.397524
  C       0.183825     -2.866825      0.339762
  C      -0.154463     -2.437871      1.675453
  C       2.095188     -2.032385      1.331293
  C       1.574862     -2.659118      0.157037
  C       1.013871     -1.937354      2.267325
  N      -1.093721      0.090025     -0.504325
  C      -2.368809      0.235558      0.213138
  C      -3.156943      1.476494     -0.180745
  H      -3.993234      1.595475      0.506291
  H      -3.583850      1.409651     -1.182364
  H      -2.549683      2.379746     -0.118295
  C      -3.196085     -1.032524      0.034250
  H      -2.094325      0.331600      1.264924
  H      -4.096630     -0.980479      0.644955
  H      -3.503925     -1.155653     -1.004881
  H      -2.646759     -1.924867      0.330521
  C      -0.947672      0.505097     -1.710177
  C       0.364387      0.347249     -2.252972
  H      -1.759068      0.966266     -2.263680
  C       1.363988     -0.054581     -1.366565
  C       2.589984     -0.232062     -2.080089
  S       0.899856      0.525998     -3.856675
  C       2.479829      0.051882     -3.410647
  H       1.690643      1.226859     -0.726982
  H       3.527001     -0.510058     -1.619216
  H       3.260133      0.019812     -4.155907
  H      -0.479273     -3.343353     -0.367187
  H      -1.124542     -2.502794      2.143743
  H       1.076269     -1.485758      3.247104
  O       1.828878      2.305449     -0.014567
  O       0.637142      1.074405      1.410622
  C       1.226935      2.133711      1.081619
  C       1.246083      3.269249      2.058147
  H       1.127547      4.221679      1.546265
  H       2.216781      3.290478      2.556708
  H       0.475546      3.151876      2.814331
  H       3.127892     -1.787669      1.525734
  H       2.135547     -2.913615     -0.730733
39
Coordinates from ORCA-job reaction4-IEIP_ts_guess_scan_13-14_orca E -1288.406994038088
  Ir      0.605986     -0.752529      0.397828
  C       0.185124     -2.866829      0.339229
  C      -0.155295     -2.438272      1.674566
  C       2.094585     -2.031434      1.333849
  C       1.576474     -2.658339      0.158772
  C       1.011774     -1.937130      2.268320
  N      -1.094156      0.088825     -0.504117
  C      -2.369167      0.234265      0.213555
  C      -3.156007      1.476619     -0.178524
  H      -3.991991      1.595655      0.508893
  H      -3.583245      1.411717     -1.180128
  H      -2.547672      2.379062     -0.114956
  C      -3.197484     -1.032806      0.032648
  H      -2.094691      0.328567      1.265480
  H      -4.097864     -0.981071      0.643640
  H      -3.505723     -1.153915     -1.006599
  H      -2.648864     -1.926174      0.327220
  C      -0.948508      0.503376     -1.710317
  C       0.363647      0.345711     -2.252927
  H      -1.760123      0.963865     -2.264043
  C       1.363591     -0.055935     -1.366841
  C       2.589879     -0.231388     -2.080129
  S       0.899489      0.526628     -3.856481
  C       2.479607      0.053800     -3.410511
  H       1.688806      1.226018     -0.728057
  H       3.527096     -0.509124     -1.619523
  H       3.260108      0.023181     -4.155631
  H      -0.476609     -3.343673     -0.368780
  H      -1.126199     -2.503413      2.141139
  H       1.072557     -1.485904      3.248364
  O       1.828472      2.304929     -0.016407
  O       0.637202      1.074919      1.410157
  C       1.227401      2.133828      1.080404
  C       1.248189      3.269568      2.056619
  H       1.129545      4.221853      1.544488
  H       2.219455      3.290341      2.554089
  H       0.478463      3.152920      2.813738
  H       3.126860     -1.786196      1.529906
  H       2.138656     -2.912325     -0.728194
