39
Generated by autodE on: 2023-08-13. E = -1288.399787 Ha
Ir    0.60377  -0.71322   0.44106
C     0.05528  -2.80202   0.34795
C     0.11015  -2.34610   1.71359
C     2.21190  -2.11921   0.79436
C     1.33043  -2.64171  -0.22507
C     1.46772  -1.97223   1.98003
N    -1.04687   0.16256  -0.52427
C    -2.31518   0.47466   0.15259
C    -3.11747   1.56811  -0.53460
H    -3.94378   1.85832   0.11292
H    -3.56179   1.24256  -1.47652
H    -2.51901   2.46122  -0.71659
C    -3.13026  -0.80210   0.32046
H    -2.02059   0.83185   1.14057
H    -4.04087  -0.58367   0.87624
H    -3.42079  -1.21677  -0.64569
H    -2.58639  -1.56444   0.87636
C    -0.86081   0.37898  -1.76933
C     0.48530   0.16241  -2.24642
H    -1.64865   0.74111  -2.42329
C     1.57674   0.41785  -1.42057
C     2.78672   0.02390  -2.06369
S     0.92657  -0.51164  -3.74545
C     2.58741  -0.48750  -3.30728
H     1.52550   1.32775  -0.65934
H     3.76817   0.16733  -1.63559
H     3.32975  -0.83173  -4.01141
H    -0.82304  -3.17239  -0.16099
H    -0.69199  -2.37677   2.43597
H     1.83562  -1.56775   2.91209
O     1.33878   2.46010   0.23855
O     0.53391   0.92917   1.64550
C     0.92115   2.12210   1.34487
C     0.86164   3.10578   2.47980
H     0.82883   4.12500   2.10470
H     1.76265   3.00212   3.08759
H     0.01017   2.91966   3.13100
H     3.26105  -1.89530   0.67236
H     1.60765  -2.87881  -1.24174
