39
Generated by autodE on: 2023-08-13. E = -1288.396909 Ha
Ir    0.57737  -0.73073   0.47585
C     0.02600  -2.81018   0.33541
C     0.11682  -2.37037   1.70827
C     2.19435  -2.14297   0.74758
C     1.28616  -2.64015  -0.26211
C     1.48759  -2.01940   1.95521
N    -1.03908   0.17976  -0.51146
C    -2.31071   0.52514   0.14315
C    -3.12938   1.55214  -0.62155
H    -3.96318   1.87125   0.00216
H    -3.56338   1.15171  -1.53924
H    -2.54853   2.44251  -0.86450
C    -3.10917  -0.74495   0.40923
H    -2.01857   0.95949   1.10081
H    -4.02340  -0.49502   0.94532
H    -3.39376  -1.23694  -0.52186
H    -2.55916  -1.45509   1.02526
C    -0.82208   0.38072  -1.75226
C     0.53164   0.14314  -2.21390
H    -1.59276   0.74506  -2.42576
C     1.64691   0.57048  -1.50479
C     2.84212   0.13443  -2.14505
S     0.93680  -0.71577  -3.63699
C     2.61172  -0.56010  -3.29068
H     1.55640   1.41828  -0.71478
H     3.83382   0.37529  -1.79082
H     3.33889  -0.97506  -3.97219
H    -0.86721  -3.16709  -0.15683
H    -0.66807  -2.41001   2.44958
H     1.88103  -1.63806   2.88653
O     1.25736   2.45923   0.28126
O     0.54268   0.88619   1.69399
C     0.88314   2.09966   1.39105
C     0.81733   3.06241   2.54422
H     0.75456   4.08585   2.18459
H     1.72919   2.97207   3.13773
H    -0.01950   2.84764   3.20570
H     3.23681  -1.90525   0.59490
H     1.53861  -2.84613  -1.29230
