! Opt PBEh-3c
%geom Constraints
{ B 0 20 2.257142857142857 C }
{ B 24 30 1.3142857142857143 C }
    end
end
%output 
xyzfile=True 
end 
%scf 
maxiter 250 
end
%output
Print[P_Hirshfeld] = 1
end
% maxcore
4000
*xyz 1 1
Ir   0.59977810  -0.73660979   0.48002281 
C    0.10522393  -2.83862098   0.37190508 
C   -0.07555941  -2.36853393   1.72146752 
C    2.15000382  -2.09699723   1.15467449 
C    1.46076606  -2.66539291   0.02442468 
C    1.20011903  -1.94480280   2.19223246 
N   -1.05321536   0.11278207  -0.50038287 
C   -2.33787629   0.32645874   0.18707864 
C   -3.12078904   1.52259792  -0.33630027 
H   -3.95746331   1.71610037   0.33330279 
H   -3.54755747   1.35164256  -1.32548048 
H   -2.51158780   2.42612248  -0.36829802 
C   -3.16607600  -0.95178557   0.12439278 
H   -2.07408598   0.52491980   1.22686141 
H   -4.08321988  -0.82923252   0.69915123 
H   -3.44594737  -1.18883041  -0.90291601 
H   -2.63317557  -1.80673870   0.53757608 
C   -0.89240288   0.42705293  -1.73278160 
C    0.42697293   0.27536336  -2.27363502 
H   -1.70912891   0.81909606  -2.33159423 
C    1.51596269   0.18606867  -1.41715148 
C    2.70486559  -0.07439544  -2.15382666 
S    0.84695859   0.08667855  -3.91365244 
C    2.49056272  -0.14281209  -3.49906368 
H    1.64476900   1.18143238  -0.56716376 
H    3.68824155  -0.14893250  -1.71293864 
H    3.22197450  -0.29789407  -4.27771379 
H   -0.66129373  -3.25125365  -0.26778907 
H   -0.98384654  -2.40846342   2.30363062 
H    1.39489851  -1.50795900   3.16160694 
O    1.72453097   2.27839267   0.17810007 
O    0.54393560   1.00986346   1.57465557 
C    1.11686807   2.09907006   1.25133361 
C    1.06834368   3.21426815   2.25226038 
H    0.95250849   4.17248848   1.75081645 
H    2.01668896   3.24604088   2.79149481 
H    0.27042317   3.07090645   2.97533947 
H    3.20411484  -1.87506957   1.21789382 
H    1.90408475  -2.91383136  -0.92879354 
*
