39
Generated by autodE on: 2023-08-13. E = -1288.400212 Ha
Ir    0.60882  -0.71191   0.43766
C     0.06197  -2.80393   0.35270
C     0.10032  -2.34466   1.71684
C     2.21272  -2.11583   0.81986
C     1.34387  -2.64494  -0.20656
C     1.45246  -1.96433   1.99578
N    -1.04650   0.15807  -0.52553
C    -2.31444   0.46041   0.15655
C    -3.11369   1.56920  -0.50961
H    -3.93907   1.84967   0.14334
H    -3.55901   1.26241  -1.45727
H    -2.51227   2.46348  -0.67513
C    -3.13300  -0.81745   0.29862
H    -2.01993   0.79725   1.15160
H    -4.04289  -0.60836   0.85922
H    -3.42481  -1.21153  -0.67570
H    -2.59036  -1.59241   0.83793
C    -0.86705   0.38362  -1.77063
C     0.47590   0.17274  -2.25431
H    -1.65895   0.74921  -2.41753
C     1.56200   0.37546  -1.40571
C     2.77356  -0.00342  -2.05578
S     0.92265  -0.43937  -3.77597
C     2.57943  -0.45561  -3.32307
H     1.52552   1.29962  -0.65085
H     3.75291   0.10905  -1.61386
H     3.32395  -0.77666  -4.03578
H    -0.80931  -3.17862  -0.16510
H    -0.71014  -2.37350   2.42981
H     1.80846  -1.55430   2.93007
O     1.36240   2.45287   0.22475
O     0.53437   0.93881   1.63549
C     0.93276   2.12542   1.33091
C     0.87330   3.11920   2.45676
H     0.84798   4.13549   2.07326
H     1.77094   3.01538   3.06946
H     0.01765   2.94273   3.10508
H     3.26400  -1.89516   0.71172
H     1.63287  -2.88890  -1.21826
