39
Generated by autodE on: 2023-08-14. E = -1288.399897 Ha
Ir    0.63267  -0.71565   0.41753
C     0.14258  -2.83092   0.31182
C     0.01581  -2.37993   1.67261
C     2.21096  -2.07878   1.01400
C     1.47990  -2.64536  -0.09195
C     1.30443  -1.94687   2.09305
N    -1.04969   0.13463  -0.51599
C    -2.30881   0.39631   0.19794
C    -3.08520   1.58468  -0.35023
H    -3.90371   1.81508   0.33026
H    -3.53684   1.38408  -1.32267
H    -2.46371   2.47699  -0.42796
C    -3.15498  -0.87202   0.20887
H    -2.00814   0.62570   1.22097
H    -4.04786  -0.71435   0.81222
H    -3.47601  -1.14089  -0.79830
H    -2.61681  -1.71782   0.63418
C    -0.90340   0.40422  -1.75937
C     0.42220   0.20207  -2.27553
H    -1.71087   0.79668  -2.36951
C     1.48514   0.17932  -1.36781
C     2.70116  -0.12566  -2.05646
S     0.88710  -0.13506  -3.86877
C     2.52649  -0.31700  -3.39083
H     1.53640   1.17633  -0.66451
H     3.67177  -0.14503  -1.58248
H     3.27829  -0.53178  -4.13500
H    -0.64909  -3.24127  -0.29821
H    -0.86891  -2.42905   2.28922
H     1.53634  -1.51732   3.05741
O     1.47908   2.41094   0.13396
O     0.56297   0.97938   1.57276
C     1.00139   2.13780   1.24001
C     0.93523   3.18602   2.31459
H     0.88783   4.18152   1.88137
H     1.84340   3.12990   2.91768
H     0.09008   3.02598   2.97995
H     3.26611  -1.85400   1.03860
H     1.88607  -2.88968  -1.06264
