39
Coordinates from ORCA-job reaction4-IEIP_ts_guess_scan_14-13_orca E -1288.403698310992
  Ir      0.614516     -0.741207      0.388120
  C       0.181936     -2.856827      0.316214
  C      -0.124652     -2.431378      1.660243
  C       2.121497     -2.037488      1.267166
  C       1.567762     -2.651464      0.099489
  C       1.063904     -1.941533      2.228555
  N      -1.089338      0.100767     -0.509132
  C      -2.359577      0.260519      0.213731
  C      -3.149278      1.494651     -0.198262
  H      -3.980880      1.627088      0.491987
  H      -3.582791      1.409410     -1.195634
  H      -2.541243      2.398617     -0.156501
  C      -3.188246     -1.010302      0.062588
  H      -2.077897      0.375179      1.261671
  H      -4.087203     -0.944649      0.674302
  H      -3.498806     -1.154717     -0.972991
  H      -2.639165     -1.896558      0.376887
  C      -0.947092      0.497018     -1.715981
  C       0.365865      0.324713     -2.240574
  H      -1.754720      0.951981     -2.279907
  C       1.361773     -0.039973     -1.329401
  C       2.592810     -0.236737     -2.032977
  S       0.909716      0.447446     -3.844286
  C       2.489972     -0.003493     -3.372266
  H       1.636254      1.195244     -0.700254
  H       3.529377     -0.487865     -1.556018
  H       3.274797     -0.056847     -4.111597
  H      -0.501397     -3.320791     -0.379800
  H      -1.082989     -2.496735      2.152039
  H       1.152077     -1.495908      3.209175
  O       1.771189      2.303233     -0.006352
  O       0.627868      1.061621      1.432553
  C       1.193149      2.133015      1.093905
  C       1.202487      3.267208      2.073461
  H       1.081869      4.219774      1.562570
  H       2.170923      3.291136      2.576276
  H       0.430025      3.145619      2.827194
  H       3.159777     -1.799148      1.438402
  H       2.105102     -2.901428     -0.803858
39
Coordinates from ORCA-job reaction4-IEIP_ts_guess_scan_14-13_orca E -1288.403925087854
  Ir      0.614184     -0.741902      0.385505
  C       0.181391     -2.859850      0.317416
  C      -0.122795     -2.436181      1.662585
  C       2.121490     -2.040215      1.266072
  C       1.566754     -2.655020      0.099341
  C       1.065021     -1.945664      2.228508
  N      -1.091772      0.098949     -0.507522
  C      -2.361209      0.260344      0.216470
  C      -3.148874      1.495707     -0.195649
  H      -3.980458      1.629516      0.494344
  H      -3.582155      1.411126     -1.193198
  H      -2.539458      2.398757     -0.153790
  C      -3.192143     -1.009014      0.065762
  H      -2.079014      0.374660      1.264357
  H      -4.090805     -0.941825      0.677747
  H      -3.503375     -1.152968     -0.969694
  H      -2.644529     -1.896214      0.379910
  C      -0.946636      0.495922     -1.719182
  C       0.369364      0.325469     -2.246013
  H      -1.753776      0.951843     -2.282943
  C       1.362038     -0.043673     -1.332980
  C       2.594908     -0.239523     -2.034982
  S       0.917372      0.453786     -3.848200
  C       2.495755     -0.001428     -3.373709
  H       1.642003      1.203016     -0.703948
  H       3.530374     -0.492341     -1.556573
  H       3.282483     -0.053586     -4.111011
  H      -0.502595     -3.324577     -0.377474
  H      -1.080074     -2.502770      2.156168
  H       1.154278     -1.500745      3.209343
  O       1.773828      2.310759     -0.009056
  O       0.626327      1.063429      1.431735
  C       1.192631      2.136560      1.092793
  C       1.198297      3.270328      2.072492
  H       1.077197      4.222886      1.561631
  H       2.165652      3.295559      2.577307
  H       0.424412      3.147167      2.824428
  H       3.160029     -1.802579      1.436837
  H       2.103246     -2.906518     -0.804086
39
Coordinates from ORCA-job reaction4-IEIP_ts_guess_scan_14-13_orca E -1288.404027528598
  Ir      0.613582     -0.741943      0.384138
  C       0.177859     -2.860735      0.322369
  C      -0.123174     -2.438508      1.668563
  C       2.119591     -2.042848      1.267488
  C       1.563087     -2.658194      0.102310
  C       1.064607     -1.948573      2.231437
  N      -1.092155      0.098327     -0.505854
  C      -2.361311      0.259026      0.217203
  C      -3.148494      1.494393     -0.195782
  H      -3.981582      1.627954      0.492486
  H      -3.579452      1.409945     -1.194339
  H      -2.539300      2.397508     -0.152507
  C      -3.191785     -1.010525      0.065952
  H      -2.079551      0.373140      1.265222
  H      -4.090886     -0.943782      0.677379
  H      -3.502275     -1.154513     -0.969695
  H      -2.643910     -1.897528      0.380423
  C      -0.945698      0.497798     -1.718897
  C       0.370533      0.328980     -2.249300
  H      -1.753537      0.954611     -2.280773
  C       1.360326     -0.049596     -1.337207
  C       2.594537     -0.242072     -2.038399
  S       0.920721      0.465580     -3.850305
  C       2.498171      0.007098     -3.375371
  H       1.649716      1.210005     -0.709699
  H       3.528952     -0.499227     -1.560181
  H       3.286485     -0.040614     -4.111248
  H      -0.507498     -3.325619     -0.371036
  H      -1.079548     -2.504676      2.163939
  H       1.155802     -1.503913      3.212210
  O       1.777988      2.316288     -0.011823
  O       0.626943      1.064601      1.428683
  C       1.193451      2.138102      1.090324
  C       1.197411      3.271014      2.070135
  H       1.076711      4.223851      1.559664
  H       2.163979      3.296290      2.576503
  H       0.422292      3.146767      2.820535
  H       3.158650     -1.807041      1.437477
  H       2.098133     -2.912183     -0.801285
39
Coordinates from ORCA-job reaction4-IEIP_ts_guess_scan_14-13_orca E -1288.404102645098
  Ir      0.612989     -0.742389      0.383537
  C       0.173302     -2.860810      0.329130
  C      -0.125009     -2.439672      1.676177
  C       2.116833     -2.045425      1.271002
  C       1.558732     -2.661157      0.107283
  C       1.063071     -1.950721      2.236454
  N      -1.092077      0.098217     -0.505529
  C      -2.362177      0.255887      0.216041
  C      -3.151409      1.490413     -0.195774
  H      -3.985948      1.621201      0.491257
  H      -3.580465      1.406686     -1.195175
  H      -2.544076      2.394657     -0.150073
  C      -3.190491     -1.014874      0.062871
  H      -2.081627      0.368968      1.264548
  H      -4.090342     -0.950336      0.673441
  H      -3.499576     -1.158438     -0.973249
  H      -2.641286     -1.901114      0.377138
  C      -0.944435      0.502215     -1.717443
  C       0.371039      0.335576     -2.250431
  H      -1.752782      0.961190     -2.276691
  C       1.357982     -0.056451     -1.341130
  C       2.593141     -0.244680     -2.041799
  S       0.925196      0.491430     -3.848606
  C       2.498713      0.016693     -3.376775
  H       1.659934      1.216523     -0.716940
  H       3.525699     -0.511563     -1.565329
  H       3.287661     -0.028552     -4.112139
  H      -0.513435     -3.325621     -0.362970
  H      -1.080904     -2.504402      2.172652
  H       1.156222     -1.505909      3.216978
  O       1.784653      2.320441     -0.014689
  O       0.630389      1.066897      1.424357
  C       1.197301      2.139557      1.087146
  C       1.200867      3.272661      2.066275
  H       1.081489      4.225579      1.555642
  H       2.166761      3.297398      2.573986
  H       0.424582      3.148750      2.815520
  H       3.156462     -1.811830      1.440441
  H       2.092393     -2.917806     -0.796396
39
Coordinates from ORCA-job reaction4-IEIP_ts_guess_scan_14-13_orca E -1288.404169653526
  Ir      0.611736     -0.745368      0.383421
  C       0.165297     -2.861558      0.338796
  C      -0.130242     -2.440522      1.686477
  C       2.111389     -2.050345      1.277275
  C       1.551465     -2.666658      0.115313
  C       1.058703     -1.953381      2.244303
  N      -1.091546      0.097992     -0.505697
  C      -2.363209      0.251072      0.214264
  C      -3.156017      1.484009     -0.195495
  H      -3.991780      1.610552      0.490780
  H      -3.583694      1.401042     -1.195551
  H      -2.551599      2.390078     -0.147137
  C      -3.188261     -1.021572      0.058617
  H      -2.084276      0.362956      1.263416
  H      -4.089123     -0.960034      0.667979
  H      -3.495380     -1.164787     -0.978146
  H      -2.637183     -1.906651      0.372766
  C      -0.942913      0.508519     -1.714647
  C       0.370605      0.342240     -2.250102
  H      -1.751736      0.970365     -2.270855
  C       1.354386     -0.067618     -1.345488
  C       2.591194     -0.247012     -2.045043
  S       0.927820      0.515393     -3.845926
  C       2.501516      0.041657     -3.375139
  H       1.672704      1.221536     -0.729089
  H       3.521658     -0.524930     -1.570936
  H       3.293293      0.010036     -4.108211
  H      -0.523172     -3.325932     -0.351922
  H      -1.086147     -2.501831      2.183339
  H       1.154204     -1.507618      3.224154
  O       1.792968      2.322668     -0.021705
  O       0.637806      1.068911      1.416888
  C       1.204404      2.139969      1.080212
  C       1.209469      3.274639      2.057552
  H       1.091087      4.227170      1.546020
  H       2.175424      3.298967      2.565191
  H       0.433118      3.152276      2.807023
  H       3.151806     -1.819980      1.446254
  H       2.083596     -2.927055     -0.788210
39
Coordinates from ORCA-job reaction4-IEIP_ts_guess_scan_14-13_orca E -1288.404213167888
  Ir      0.610640     -0.747861      0.383534
  C       0.161974     -2.861866      0.342786
  C      -0.134388     -2.440274      1.690225
  C       2.107818     -2.051348      1.282100
  C       1.548901     -2.668550      0.120334
  C       1.054311     -1.953146      2.248734
  N      -1.091526      0.097314     -0.506331
  C      -2.363965      0.247244      0.213359
  C      -3.159237      1.478912     -0.195162
  H      -3.995121      1.602792      0.491412
  H      -3.587024      1.396109     -1.195229
  H      -2.556750      2.386225     -0.145884
  C      -3.186691     -1.026703      0.056084
  H      -2.085811      0.358659      1.262804
  H      -4.088204     -0.966929      0.664619
  H      -3.492531     -1.169784     -0.981085
  H      -2.634568     -1.911098      0.370239
  C      -0.942684      0.513170     -1.712314
  C       0.370240      0.348146     -2.247397
  H      -1.751009      0.978565     -2.266404
  C       1.352772     -0.072060     -1.346359
  C       2.589871     -0.247048     -2.045844
  S       0.931473      0.542087     -3.839769
  C       2.500907      0.051136     -3.374310
  H       1.680131      1.223560     -0.736653
  H       3.518623     -0.534968     -1.574439
  H       3.292511      0.021442     -4.107667
  H      -0.526169     -3.326480     -0.348125
  H      -1.091181     -2.499767      2.185585
  H       1.149478     -1.506402      3.228139
  O       1.798359      2.322831     -0.026039
  O       0.642687      1.069923      1.411192
  C       1.209368      2.140009      1.075346
  C       1.215975      3.275580      2.052120
  H       1.098496      4.227975      1.540195
  H       2.182073      3.299092      2.559524
  H       0.439759      3.154559      2.801989
  H       3.148250     -1.821619      1.451918
  H       2.081613     -2.930235     -0.782485
39
Coordinates from ORCA-job reaction4-IEIP_ts_guess_scan_14-13_orca E -1288.404237619513
  Ir      0.609713     -0.750515      0.383681
  C       0.161107     -2.863196      0.343641
  C      -0.137702     -2.440100      1.690250
  C       2.105378     -2.051471      1.285739
  C       1.548715     -2.670032      0.123581
  C       1.050084     -1.952130      2.250748
  N      -1.092247      0.096523     -0.506554
  C      -2.364889      0.244917      0.213629
  C      -3.161265      1.476206     -0.193757
  H      -3.996639      1.598818      0.493688
  H      -3.589961      1.393754     -1.193476
  H      -2.559570      2.384037     -0.144287
  C      -3.186769     -1.029393      0.055087
  H      -2.086752      0.355850      1.263126
  H      -4.088579     -0.970282      0.663257
  H      -3.492092     -1.171916     -0.982302
  H      -2.634624     -1.913855      0.368869
  C      -0.943165      0.515765     -1.710840
  C       0.370006      0.350453     -2.244814
  H      -1.750516      0.983447     -2.264383
  C       1.352462     -0.073439     -1.345449
  C       2.589635     -0.245792     -2.045087
  S       0.932435      0.551616     -3.836075
  C       2.501290      0.058515     -3.372486
  H       1.682975      1.222871     -0.741722
  H       3.517895     -0.537195     -1.574881
  H       3.293166      0.032117     -4.105675
  H      -0.525705     -3.328720     -0.347988
  H      -1.095625     -2.498716      2.183527
  H       1.143558     -1.504397      3.229837
  O       1.801171      2.321732     -0.030468
  O       0.646149      1.069923      1.406991
  C       1.213092      2.139629      1.070973
  C       1.221125      3.275605      2.047618
  H       1.103597      4.227849      1.535447
  H       2.187712      3.298687      2.554087
  H       0.445625      3.155367      2.798371
  H       3.145470     -1.821155      1.456952
  H       2.083109     -2.932184     -0.778114
39
Coordinates from ORCA-job reaction4-IEIP_ts_guess_scan_14-13_orca E -1288.404257978996
  Ir      0.608518     -0.753543      0.383657
  C       0.161403     -2.865569      0.343946
  C      -0.141649     -2.440363      1.689194
  C       2.102401     -2.050871      1.290925
  C       1.549838     -2.671850      0.128091
  C       1.043976     -1.950594      2.252876
  N      -1.093612      0.095490     -0.506163
  C      -2.366225      0.242367      0.214558
  C      -3.163404      1.473559     -0.191480
  H      -3.998398      1.594911      0.496683
  H      -3.592738      1.391803     -1.190990
  H      -2.562376      2.381797     -0.141389
  C      -3.187400     -1.032115      0.054154
  H      -2.087895      0.352447      1.264086
  H      -4.089518     -0.973811      0.661970
  H      -3.492234     -1.173472     -0.983522
  H      -2.635433     -1.916966      0.367059
  C      -0.944054      0.518711     -1.708949
  C       0.369795      0.353356     -2.242011
  H      -1.750171      0.989060     -2.261961
  C       1.352134     -0.073926     -1.344104
  C       2.589213     -0.244012     -2.044464
  S       0.932735      0.560586     -3.832427
  C       2.501459      0.066686     -3.370640
  H       1.686029      1.222461     -0.748483
  H       3.517245     -0.538040     -1.575450
  H       3.293620      0.043916     -4.103635
  H      -0.522842     -3.333139     -0.348830
  H      -1.101171     -2.498666      2.179403
  H       1.134203     -1.501673      3.231698
  O       1.805031      2.320785     -0.036535
  O       0.649783      1.069908      1.401545
  C       1.217671      2.139193      1.065126
  C       1.227365      3.274914      2.042193
  H       1.109837      4.227247      1.530174
  H       2.194510      3.297169      2.547616
  H       0.452620      3.155172      2.793793
  H       3.141787     -1.819146      1.464627
  H       2.087319     -2.934590     -0.771602
39
Coordinates from ORCA-job reaction4-IEIP_ts_guess_scan_14-13_orca E -1288.404266723857
  Ir      0.607967     -0.754605      0.383469
  C       0.162657     -2.867110      0.343945
  C      -0.143628     -2.440894      1.688283
  C       2.100820     -2.049814      1.294678
  C       1.551514     -2.672572      0.131334
  C       1.040005     -1.949611      2.254237
  N      -1.094586      0.095157     -0.505618
  C      -2.367223      0.241065      0.215105
  C      -3.164719      1.472411     -0.189835
  H      -3.999890      1.592811      0.498291
  H      -3.593785      1.391501     -1.189522
  H      -2.564047      2.380824     -0.138641
  C      -3.188036     -1.033444      0.053107
  H      -2.088870      0.350175      1.264734
  H      -4.090269     -0.976040      0.660852
  H      -3.492697     -1.173536     -0.984784
  H      -2.636022     -1.918651      0.364897
  C      -0.944703      0.520360     -1.707859
  C       0.369481      0.355354     -2.241074
  H      -1.750355      0.991896     -2.260495
  C       1.351664     -0.073611     -1.343714
  C       2.588527     -0.243342     -2.044925
  S       0.932056      0.564602     -3.831264
  C       2.500814      0.069882     -3.370498
  H       1.687905      1.223280     -0.752559
  H       3.516614     -0.538179     -1.576506
  H       3.292944      0.048227     -4.103554
  H      -0.519475     -3.336484     -0.349669
  H      -1.104180     -2.499641      2.176430
  H       1.127600     -1.500120      3.233030
  O       1.808083      2.320848     -0.039643
  O       0.651409      1.070360      1.398482
  C       1.220527      2.139190      1.062054
  C       1.231162      3.274280      2.039763
  H       1.114088      4.226951      1.528240
  H       2.198465      3.295633      2.544926
  H       0.456521      3.154620      2.791465
  H       3.139610     -1.816914      1.470380
  H       2.091424     -2.935670     -0.766802
39
Coordinates from ORCA-job reaction4-IEIP_ts_guess_scan_14-13_orca E -1288.404273194792
  Ir      0.607491     -0.754857      0.383068
  C       0.165398     -2.868564      0.343505
  C      -0.145599     -2.441724      1.686699
  C       2.099183     -2.047436      1.299793
  C       1.554683     -2.672391      0.135571
  C       1.034990     -1.948220      2.255973
  N      -1.095716      0.095082     -0.504944
  C      -2.368441      0.239729      0.215576
  C      -3.166139      1.471482     -0.187670
  H      -4.001821      1.590524      0.500066
  H      -3.594417      1.392049     -1.187807
  H      -2.565791      2.379995     -0.134520
  C      -3.188890     -1.034743      0.051272
  H      -2.090181      0.347197      1.265413
  H      -4.091054     -0.978890      0.659266
  H      -3.493676     -1.172730     -0.986866
  H      -2.636532     -1.920471      0.360988
  C      -0.945690      0.521887     -1.706815
  C       0.368625      0.357589     -2.240841
  H      -1.751237      0.994213     -2.258928
  C       1.350697     -0.072770     -1.343896
  C       2.587105     -0.243196     -2.046399
  S       0.930108      0.567362     -3.831099
  C       2.499016      0.071276     -3.371522
  H       1.689814      1.225131     -0.756836
  H       3.515391     -0.538388     -1.578563
  H       3.290810      0.049633     -4.104932
  H      -0.513580     -3.340479     -0.351447
  H      -1.107538     -2.501643      2.171979
  H       1.118676     -1.498211      3.234868
  O       1.812355      2.321197     -0.042015
  O       0.652492      1.071409      1.395315
  C       1.223859      2.139368      1.059416
  C       1.235814      3.273390      2.038227
  H       1.120054      4.226761      1.527672
  H       2.203088      3.293046      2.543532
  H       0.460871      3.153892      2.789618
  H       3.137058     -1.812717      1.478450
  H       2.098096     -2.935592     -0.760424
39
Coordinates from ORCA-job reaction4-IEIP_ts_guess_scan_14-13_orca E -1288.404275562115
  Ir      0.607213     -0.754269      0.382665
  C       0.168853     -2.869171      0.342586
  C      -0.146916     -2.442508      1.684810
  C       2.098081     -2.044268      1.304641
  C       1.558473     -2.670921      0.139296
  C       1.030615     -1.946795      2.257594
  N      -1.096629      0.095107     -0.504617
  C      -2.369471      0.238613      0.215749
  C      -3.167040      1.471076     -0.185488
  H      -4.003192      1.588816      0.501889
  H      -3.594597      1.393505     -1.186075
  H      -2.566708      2.379468     -0.130215
  C      -3.189857     -1.035623      0.049011
  H      -2.091377      0.344124      1.265838
  H      -4.091687     -0.981423      0.657638
  H      -3.495202     -1.171132     -0.989296
  H      -2.637064     -1.921992      0.356135
  C      -0.946850      0.522490     -1.706352
  C       0.367317      0.358836     -2.241324
  H      -1.752701      0.994862     -2.258015
  C       1.349496     -0.071996     -1.344621
  C       2.585383     -0.243676     -2.048218
  S       0.927530      0.567560     -3.831931
  C       2.496644      0.070343     -3.373262
  H       1.690721      1.226888     -0.759534
  H       3.513894     -0.538782     -1.580752
  H       3.287931      0.047826     -4.107188
  H      -0.506922     -3.343336     -0.353929
  H      -1.110238     -2.503892      2.167167
  H       1.110330     -1.496492      3.236684
  O       1.816247      2.321244     -0.042614
  O       0.652565      1.072705      1.393280
  C       1.226510      2.139576      1.058313
  C       1.240001      3.272713      2.038092
  H       1.126098      4.226803      1.528443
  H       2.207099      3.290364      2.543821
  H       0.464501      3.153747      2.788981
  H       3.134987     -1.807582      1.486287
  H       2.105333     -2.933621     -0.754747
39
Coordinates from ORCA-job reaction4-IEIP_ts_guess_scan_14-13_orca E -1288.404276004769
  Ir      0.606824     -0.752906      0.382135
  C       0.174733     -2.869268      0.340620
  C      -0.148601     -2.443661      1.681487
  C       2.096682     -2.038626      1.312059
  C       1.564867     -2.667355      0.144625
  C       1.024175     -1.944550      2.260097
  N      -1.097914      0.094897     -0.504545
  C      -2.370888      0.236786      0.215848
  C      -3.167782      1.470810     -0.181771
  H      -4.004378      1.586690      0.505372
  H      -3.594663      1.396654     -1.182904
  H      -2.567007      2.378690     -0.123187
  C      -3.191622     -1.036746      0.045072
  H      -2.093033      0.338859      1.266337
  H      -4.092637     -0.985092      0.655107
  H      -3.498345     -1.167922     -0.993395
  H      -2.638237     -1.924359      0.347577
  C      -0.948943      0.522341     -1.706253
  C       0.364844      0.359495     -2.242479
  H      -1.755541      0.994181     -2.257339
  C       1.347440     -0.071277     -1.346121
  C       2.582558     -0.244783     -2.050998
  S       0.923266      0.565889     -3.833787
  C       2.492716      0.067602     -3.376202
  H       1.690925      1.228909     -0.762350
  H       3.511397     -0.539549     -1.583949
  H       3.283183      0.043562     -4.110959
  H      -0.495986     -3.346492     -0.358662
  H      -1.114174     -2.507443      2.159035
  H       1.097611     -1.494000      3.239555
  O       1.821710      2.320629     -0.042358
  O       0.651842      1.074866      1.391045
  C       1.230020      2.139836      1.057701
  C       1.246370      3.271989      2.038605
  H       1.135748      4.227042      1.530036
  H       2.213174      3.286279      2.545017
  H       0.469966      3.154464      2.788784
  H       3.132000     -1.798709      1.498459
  H       2.117071     -2.928543     -0.746572
39
Coordinates from ORCA-job reaction4-IEIP_ts_guess_scan_14-13_orca E -1288.404274848544
  Ir      0.606312     -0.751306      0.381691
  C       0.181927     -2.868795      0.337906
  C      -0.150462     -2.445053      1.677283
  C       2.095128     -2.031593      1.320883
  C       1.572721     -2.662260      0.150651
  C       1.016692     -1.942005      2.263143
  N      -1.099415      0.094037     -0.504802
  C      -2.372433      0.234252      0.215978
  C      -3.167859      1.470752     -0.176740
  H      -4.004551      1.584740      0.510607
  H      -3.594575      1.401297     -1.178283
  H      -2.565923      2.377584     -0.114274
  C      -3.194226     -1.037925      0.040015
  H      -2.094769      0.331776      1.266925
  H      -4.094036     -0.989089      0.652045
  H      -3.503029     -1.163386     -0.998548
  H      -2.640507     -1.927404      0.336479
  C      -0.951740      0.520993     -1.706648
  C       0.361613      0.358887     -2.243921
  H      -1.759346      0.991790     -2.257213
  C       1.344927     -0.071306     -1.348062
  C       2.579320     -0.246070     -2.053919
  S       0.918418      0.562989     -3.836036
  C       2.488250      0.064447     -3.379425
  H       1.689967      1.230176     -0.764782
  H       3.508529     -0.540366     -1.587301
  H       3.277879      0.039226     -4.115039
  H      -0.482761     -3.349142     -0.364965
  H      -1.118826     -2.511614      2.148796
  H       1.082643     -1.491388      3.243084
  O       1.827367      2.319118     -0.041820
  O       0.650487      1.077453      1.388979
  C       1.233663      2.140040      1.057368
  C       1.253917      3.271532      2.039040
  H       1.147206      4.227413      1.531209
  H       2.220492      3.281835      2.545992
  H       0.476662      3.156353      2.788712
  H       3.128483     -1.787769      1.513051
  H       2.131224     -2.921029     -0.737319
39
Coordinates from ORCA-job reaction4-IEIP_ts_guess_scan_14-13_orca E -1288.404273637269
  Ir      0.605755     -0.750090      0.381492
  C       0.188816     -2.868077      0.335058
  C      -0.152296     -2.446496      1.673070
  C       2.093578     -2.024935      1.329494
  C       1.580322     -2.657037      0.156320
  C       1.009469     -1.939830      2.266150
  N      -1.100889      0.092413     -0.505175
  C      -2.373805      0.231348      0.216306
  C      -3.167022      1.470932     -0.171077
  H      -4.003360      1.583540      0.516956
  H      -3.594206      1.406691     -1.172771
  H      -2.563245      2.376253     -0.104914
  C      -3.197367     -1.038909      0.034885
  H      -2.096189      0.323991      1.267665
  H      -4.095883     -0.992462      0.649004
  H      -3.508470     -1.158280     -1.003708
  H      -2.643893     -1.930650      0.325087
  C      -0.954680      0.518489     -1.707369
  C       0.358390      0.356927     -2.245156
  H      -1.763269      0.987950     -2.257657
  C       1.342603     -0.072357     -1.349904
  C       2.576586     -0.246903     -2.056185
  S       0.914262      0.560088     -3.837905
  C       2.484472      0.062531     -3.381950
  H       1.687928      1.230131     -0.766649
  H       3.506189     -0.540621     -1.589997
  H       3.273541      0.037265     -4.118168
  H      -0.470081     -3.350952     -0.371508
  H      -1.123469     -2.515534      2.138462
  H       1.068261     -1.489430      3.246622
  O       1.831718      2.317087     -0.041944
  O       0.649031      1.079868      1.387267
  C       1.236676      2.140181      1.056788
  C       1.261107      3.271508      2.038610
  H       1.157735      4.227813      1.530910
  H       2.227723      3.278263      2.545539
  H       0.483502      3.159017      2.788343
  H       3.124988     -1.777434      1.527368
  H       2.144842     -2.913101     -0.728619
39
Coordinates from ORCA-job reaction4-IEIP_ts_guess_scan_14-13_orca E -1288.404274761579
  Ir      0.605421     -0.749814      0.381595
  C       0.192598     -2.867750      0.333422
  C      -0.153552     -2.447470      1.670652
  C       2.092535     -2.021545      1.334751
  C       1.584612     -2.654268      0.159747
  C       1.005103     -1.938892      2.268030
  N      -1.101787      0.090790     -0.505246
  C      -2.374554      0.229226      0.216783
  C      -3.165804      1.471196     -0.167018
  H      -4.001662      1.583374      0.521698
  H      -3.593599      1.410571     -1.168677
  H      -2.560367      2.375226     -0.098616
  C      -3.199754     -1.039390      0.031671
  H      -2.096899      0.318570      1.268381
  H      -4.097550     -0.994059      0.646944
  H      -3.512213     -1.154726     -1.006966
  H      -2.646987     -1.932863      0.317984
  C      -0.956498      0.516148     -1.707828
  C       0.356552      0.354858     -2.245596
  H      -1.765631      0.984605     -2.258166
  C       1.341426     -0.073838     -1.350846
  C       2.575440     -0.246819     -2.057065
  S       0.912362      0.559111     -3.838506
  C       2.482828      0.063063     -3.382826
  H       1.686042      1.229211     -0.767835
  H       3.505358     -0.540101     -1.591243
  H       3.271820      0.038908     -4.119168
  H      -0.462979     -3.351799     -0.375414
  H      -1.126454     -2.517684      2.132276
  H       1.059839     -1.488891      3.248902
  O       1.833238      2.315763     -0.043208
  O       0.648462      1.081151      1.386238
  C       1.238137      2.140292      1.055727
  C       1.265218      3.271834      2.037219
  H       1.163050      4.228092      1.529200
  H       2.232197      3.277012      2.543466
  H       0.487991      3.160981      2.787595
  H       3.122818     -1.772132      1.536098
  H       2.152615     -2.908750     -0.723414
39
Coordinates from ORCA-job reaction4-IEIP_ts_guess_scan_14-13_orca E -1288.404277239492
  Ir      0.605371     -0.750015      0.381798
  C       0.193907     -2.867852      0.332820
  C      -0.154275     -2.447974      1.669703
  C       2.091998     -2.020752      1.337084
  C       1.586193     -2.653644      0.161310
  C       1.003148     -1.938810      2.268855
  N      -1.102099      0.089786     -0.505003
  C      -2.374773      0.228165      0.217244
  C      -3.164796      1.471470     -0.164827
  H      -4.000355      1.583719      0.524255
  H      -3.592925      1.412669     -1.166450
  H      -2.558324      2.374721     -0.095393
  C      -3.200997     -1.039472      0.030263
  H      -2.097083      0.315847      1.268955
  H      -4.098612     -0.994427      0.645833
  H      -3.513870     -1.152887     -1.008458
  H      -2.648898     -1.933904      0.314940
  C      -0.957197      0.514676     -1.707893
  C       0.355913      0.353534     -2.245557
  H      -1.766539      0.982529     -2.258424
  C       1.341138     -0.074901     -1.351080
  C       2.575332     -0.246306     -2.057185
  S       0.911893      0.559372     -3.838379
  C       2.482532      0.064495     -3.382804
  H       1.684883      1.228442     -0.768603
  H       3.505476     -0.539274     -1.591627
  H       3.271661      0.041485     -4.119043
  H      -0.460369     -3.352232     -0.376986
  H      -1.127945     -2.518449      2.129690
  H       1.056338     -1.489211      3.249991
  O       1.832949      2.315447     -0.044832
  O       0.648689      1.081521      1.385727
  C       1.238511      2.140431      1.054598
  C       1.266653      3.272186      2.035775
  H       1.164134      4.228267      1.527490
  H       2.234102      3.277295      2.541121
  H       0.490122      3.161745      2.786930
  H       3.121859     -1.770835      1.539964
  H       2.155626     -2.907665     -0.721062
