39
Generated by autodE on: 2023-08-15. E = -1288.401301 Ha
Ir    0.61683  -0.73331   0.41025
C     0.15530  -2.85077   0.33192
C    -0.08557  -2.40536   1.68058
C     2.14930  -2.06097   1.19149
C     1.52606  -2.65940   0.04505
C     1.14455  -1.93901   2.19378
N    -1.07312   0.11470  -0.50996
C    -2.34286   0.30679   0.20608
C    -3.13676   1.51674  -0.26545
H    -3.96651   1.68180   0.41997
H    -3.57349   1.37859  -1.25547
H    -2.53181   2.42373  -0.27173
C    -3.16901  -0.97176   0.11724
H    -2.05932   0.47170   1.24669
H    -4.07183  -0.87346   0.71869
H    -3.47299  -1.17201  -0.91098
H    -2.62238  -1.83883   0.48436
C    -0.92529   0.47859  -1.73105
C     0.39110   0.30358  -2.26416
H    -1.73422   0.91718  -2.30609
C     1.41813   0.03809  -1.35414
C     2.63651  -0.19608  -2.06805
S     0.89241   0.29377  -3.88332
C     2.49708  -0.08463  -3.41763
H     1.62499   1.14384  -0.66351
H     3.58924  -0.37885  -1.59219
H     3.26332  -0.18473  -4.17133
H    -0.57092  -3.29360  -0.33390
H    -1.01794  -2.45976   2.22131
H     1.28662  -1.49264   3.16789
O     1.73654   2.30923   0.07786
O     0.58535   1.03311   1.49201
C     1.14606   2.12292   1.16132
C     1.10987   3.24071   2.16148
H     0.99174   4.19906   1.66103
H     2.06271   3.26970   2.69279
H     0.31775   3.09903   2.89119
H     3.19727  -1.83362   1.31069
H     2.01468  -2.91487  -0.88395
