! Opt PBEh-3c
%geom Constraints
{ B 0 20 2.257142857142857 C }
{ B 24 30 1.3857142857142857 C }
    end
end
%output 
xyzfile=True 
end 
%scf 
maxiter 250 
end
%output
Print[P_Hirshfeld] = 1
end
% maxcore
4000
*xyz 1 1
Ir   0.61009988  -0.72268621   0.45506617 
C    0.07499806  -2.81951422   0.36836997 
C    0.03297619  -2.35381343   1.72928160 
C    2.19439054  -2.11581167   0.95122713 
C    1.38808947  -2.65971476  -0.11606888 
C    1.36104275  -1.95855054   2.07873601 
N   -1.04480223   0.13554725  -0.51788959 
C   -2.31728839   0.40445672   0.17141542 
C   -3.10583486   1.55774365  -0.43082631 
H   -3.93301113   1.80395472   0.23352199 
H   -3.54752027   1.31094566  -1.39726003 
H   -2.49726726   2.45566741  -0.54023036 
C   -3.14659646  -0.87349657   0.22647445 
H   -2.03166627   0.67872202   1.18796380 
H   -4.05699248  -0.69685964   0.79754145 
H   -3.43797409  -1.19884195  -0.77303692 
H   -2.61066314  -1.68795214   0.71127482 
C   -0.87792780   0.39376276  -1.76068549 
C    0.45452073   0.21035794  -2.27095998 
H   -1.68326991   0.76803828  -2.38554890 
C    1.53578202   0.27890563  -1.39693988 
C    2.74384087  -0.03967343  -2.08307970 
S    0.89968073  -0.20543577  -3.85771941 
C    2.54984660  -0.31505812  -3.40185077 
H    1.54708860   1.24095277  -0.61497967 
H    3.72266142  -0.00950443  -1.62700663 
H    3.29435023  -0.55526867  -4.14567075 
H   -0.76120606  -3.20674262  -0.19584125 
H   -0.81631844  -2.38313199   2.39526168 
H    1.65913871  -1.53640890   3.02797497 
O    1.48531170   2.38895319   0.18394377 
O    0.54283939   0.96599017   1.61472114 
C    0.99793820   2.11863138   1.28877930 
C    0.94172109   3.16501954   2.36401969 
H    0.92621890   4.16276643   1.93389641 
H    1.83770114   3.08336557   2.98238516 
H    0.08221991   3.02372150   3.01522915 
H    3.25100828  -1.89977125   0.90731301 
H    1.73424352  -2.91007634  -1.10806248 
*
