! Opt PBEh-3c
%geom Constraints
{ B 0 20 2.2142857142857144 C }
{ B 24 30 1.3571428571428572 C }
    end
end
%output 
xyzfile=True 
end 
%scf 
maxiter 250 
end
%output
Print[P_Hirshfeld] = 1
end
% maxcore
4000
*xyz 1 1
Ir   0.60870342  -0.72814934   0.45918497 
C    0.11199983  -2.83370888   0.35403341 
C   -0.04896933  -2.36746452   1.70703654 
C    2.16699021  -2.09183287   1.10731092 
C    1.46159832  -2.65923721  -0.01397040 
C    1.23272886  -1.94316825   2.15953100 
N   -1.05393947   0.12304907  -0.50556554 
C   -2.33217950   0.34740503   0.18904647 
C   -3.11932222   1.53553892  -0.34544742 
H   -3.95180742   1.73737207   0.32693978 
H   -3.55266498   1.34978656  -1.32912145 
H   -2.51170752   2.43940383  -0.39390867 
C   -3.16051625  -0.93196421   0.15119268 
H   -2.05844191   0.55928712   1.22356994 
H   -4.07230269  -0.80078009   0.73244843 
H   -3.44974566  -1.18301118  -0.87016272 
H   -2.62380289  -1.78076621   0.57194086 
C   -0.89486074   0.43042529  -1.73932964 
C    0.42712459   0.26338592  -2.27155228 
H   -1.70712803   0.82696691  -2.34099615 
C    1.50712384   0.18627977  -1.39859704 
C    2.70306240  -0.09407117  -2.12095121 
S    0.86003362   0.02920886  -3.89893087 
C    2.50120875  -0.19640777  -3.46447161 
H    1.62104188   1.17054085  -0.58742035 
H    3.68216135  -0.15734395  -1.66886472 
H    3.23840014  -0.37239012  -4.23309029 
H   -0.66433317  -3.24503949  -0.27463228 
H   -0.94886240  -2.40821615   2.30199095 
H    1.44182499  -1.50820788   3.12674744 
O    1.68852110   2.30558469   0.17935104 
O    0.54380632   1.00213822   1.57344972 
C    1.09528829   2.10709435   1.25287964 
C    1.03061147   3.20785793   2.27042766 
H    0.92364139   4.17370287   1.78217415 
H    1.96953298   3.22974985   2.82644287 
H    0.22151686   3.05446940   2.97921714 
H    3.22193667  -1.87020938   1.15621400 
H    1.89109694  -2.90808882  -0.97337693 
*
