39
Generated by autodE on: 2023-08-16. E = -1288.406353 Ha
Ir    0.60309  -0.74813   0.44407
C     0.11620  -2.85268   0.38073
C    -0.11672  -2.38623   1.72319
C     2.12431  -2.08520   1.22833
C     1.48866  -2.68098   0.08675
C     1.12495  -1.93394   2.22919
N    -1.06922   0.09868  -0.50751
C    -2.35097   0.27910   0.19240
C    -3.14349   1.49031  -0.27925
H    -3.98061   1.64849   0.39881
H    -3.56953   1.35857  -1.27472
H    -2.54094   2.39892  -0.27302
C    -3.17271  -1.00021   0.08330
H    -2.08421   0.43864   1.23834
H    -4.08786  -0.90633   0.66667
H    -3.45537  -1.19776  -0.95151
H    -2.63237  -1.86782   0.45845
C    -0.91294   0.46945  -1.72615
C     0.40251   0.31891  -2.26859
H    -1.72633   0.90039  -2.30132
C     1.44665   0.04885  -1.39123
C     2.65503  -0.15337  -2.11816
S     0.88287   0.36067  -3.90040
C     2.49479  -0.00647  -3.46531
H     1.66944   1.18659  -0.60714
H     3.61532  -0.34560  -1.66193
H     3.25270  -0.08034  -4.23046
H    -0.61813  -3.28831  -0.28099
H    -1.04721  -2.42550   2.26851
H     1.27657  -1.48086   3.19880
O     1.78595   2.27382   0.09597
O     0.57938   1.04095   1.50249
C     1.16944   2.10903   1.17795
C     1.15428   3.24299   2.15656
H     1.01899   4.19190   1.64199
H     2.12064   3.28714   2.66179
H     0.38045   3.11051   2.90688
H     3.17505  -1.86679   1.33951
H     1.97069  -2.94821  -0.84229
