! Opt PBEh-3c
%geom Constraints
{ B 0 20 2.257142857142857 C }
{ B 24 30 1.4142857142857144 C }
    end
end
%output 
xyzfile=True 
end 
%scf 
maxiter 250 
end
%output
Print[P_Hirshfeld] = 1
end
% maxcore
4000
*xyz 1 1
Ir   0.61640018  -0.71858943   0.44661187 
C    0.09665789  -2.81957470   0.34184766 
C    0.03978222  -2.35933966   1.70483376 
C    2.20609231  -2.10299606   0.94792635 
C    1.41291207  -2.64885554  -0.12831745 
C    1.36167245  -1.95762099   2.06893444 
N   -1.04394852   0.14046058  -0.51548220 
C   -2.31198553   0.41588377   0.17887960 
C   -3.09305465   1.57685967  -0.41801152 
H   -3.91717772   1.82744887   0.24849205 
H   -3.53797381   1.33622897  -1.38449432 
H   -2.47732682   2.47005014  -0.52581588 
C   -3.14812423  -0.85772485   0.23114270 
H   -2.02104372   0.68423679   1.19536104 
H   -4.05236452  -0.68080225   0.81175441 
H   -3.45000097  -1.17357116  -0.76829562 
H   -2.61177550  -1.67899469   0.70415553 
C   -0.88156764   0.38778658  -1.76037700 
C    0.45119824   0.19364917  -2.26948783 
H   -1.68654058   0.75981068  -2.38711759 
C    1.53655841   0.29433420  -1.40198071 
C    2.74297031  -0.04462728  -2.08277371 
S    0.89080498  -0.27856256  -3.84100796 
C    2.54415548  -0.36870583  -3.38897554 
H    1.53702294   1.24539057  -0.63793090 
H    3.72347642   0.00558198  -1.63211708 
H    3.28562937  -0.63410773  -4.12724318 
H   -0.73168896  -3.21127442  -0.23076892 
H   -0.81525841  -2.39690214   2.36311119 
H    1.64783571  -1.53744136   3.02272716 
O    1.44046129   2.41228370   0.18051433 
O    0.54732780   0.96057373   1.61456750 
C    0.97701938   2.12577498   1.28857830 
C    0.91750626   3.15921076   2.37703128 
H    0.87987722   4.16096644   1.95767997 
H    1.82298803   3.08637208   2.98255185 
H    0.06942567   2.99750099   3.03848392 
H    3.26175454  -1.88059556   0.91446220 
H    1.76967241  -2.89092844  -1.11870968 
*
