39
Generated by autodE on: 2023-08-15. E = -1288.399256 Ha
Ir    0.62130  -0.72523   0.40576
C     0.15355  -2.84531   0.32594
C    -0.05977  -2.39619   1.67745
C     2.16661  -2.06152   1.14565
C     1.51679  -2.65544   0.00975
C     1.18474  -1.93537   2.16693
N    -1.06907   0.12467  -0.51326
C    -2.33573   0.33000   0.20424
C    -3.13315   1.52894  -0.28875
H    -3.95989   1.70729   0.39701
H    -3.57466   1.36877  -1.27334
H    -2.52983   2.43659  -0.31705
C    -3.16072  -0.95115   0.14411
H    -2.04712   0.51510   1.23998
H    -4.06176  -0.84049   0.74603
H    -3.46780  -1.17294  -0.87874
H    -2.61258  -1.80972   0.52841
C    -0.92126   0.47461  -1.73800
C     0.39645   0.28987  -2.26661
H    -1.72821   0.90898  -2.31897
C     1.42834   0.06062  -1.34961
C     2.64552  -0.19534  -2.06080
S     0.89060   0.21567  -3.88436
C     2.50030  -0.13914  -3.41211
H     1.61295   1.12444  -0.66256
H     3.60107  -0.35177  -1.58126
H     3.26304  -0.26490  -4.16546
H    -0.58873  -3.28235  -0.32589
H    -0.98067  -2.44896   2.23772
H     1.34856  -1.49004   3.13811
O     1.71166   2.32540   0.10475
O     0.57344   1.02304   1.50583
C     1.12353   2.12571   1.18134
C     1.06564   3.22963   2.19742
H     0.97078   4.19592   1.70773
H     2.00159   3.24152   2.75860
H     0.25126   3.08502   2.90196
H     3.21717  -1.83519   1.24208
H     1.98544  -2.91155  -0.92929
