! Opt PBEh-3c
%geom Constraints
{ B 0 20 2.1714285714285713 C }
{ B 24 30 1.5 C }
    end
end
%output 
xyzfile=True 
end 
%scf 
maxiter 250 
end
%output
Print[P_Hirshfeld] = 1
end
% maxcore
4000
*xyz 1 1
Ir   0.62910149  -0.70718796   0.41484343 
C    0.10307654  -2.81477675   0.33866080 
C    0.07449122  -2.35272333   1.70024910 
C    2.22355861  -2.09496092   0.89524602 
C    1.40926592  -2.64767296  -0.16128244 
C    1.40112455  -1.94410627   2.03286857 
N   -1.04530882   0.14930200  -0.52752974 
C   -2.30537918   0.43330843   0.17588788 
C   -3.09258768   1.58690877  -0.42660133 
H   -3.91132921   1.84344871   0.24422662 
H   -3.54539332   1.33535542  -1.38668225 
H   -2.47885907   2.47972479  -0.54838929 
C   -3.13991618  -0.84027718   0.25239565 
H   -2.00244296   0.71235727   1.18592956 
H   -4.03904012  -0.65508839   0.83828074 
H   -3.45027425  -1.17019651  -0.73984594 
H   -2.59878798  -1.65395858   0.73297576 
C   -0.88680184   0.39599814  -1.77286938 
C    0.44658528   0.18462692  -2.27204788 
H   -1.68672648   0.77786429  -2.39957164 
C    1.51485621   0.25200109  -1.37357940 
C    2.73257668  -0.09040312  -2.03937538 
S    0.91025174  -0.28150007  -3.83360333 
C    2.55522167  -0.39869955  -3.35088686 
H    1.52245976   1.21559693  -0.66497876 
H    3.70477999  -0.05393036  -1.56979666 
H    3.30667369  -0.66554112  -4.07842894 
H   -0.73711483  -3.20851328  -0.21505532 
H   -0.76734652  -2.38584368   2.37533792 
H    1.70690758  -1.51885912   2.97822529 
O    1.39434202   2.44864946   0.17951358 
O    0.54476180   0.95849726   1.60111439 
C    0.95033095   2.13790992   1.28550418 
C    0.88035211   3.15029301   2.39464132 
H    0.85135652   4.16026501   1.99499056 
H    1.77632209   3.06112307   3.01193240 
H    0.02278965   2.97916749   3.04170120 
H    3.27920966  -1.87652017   0.84200550 
H    1.74628275  -2.90244873  -1.15526580 
*
