! Opt PBEh-3c
%geom Constraints
{ B 0 20 2.1285714285714286 C }
{ B 24 30 1.3571428571428572 C }
    end
end
%output 
xyzfile=True 
end 
%scf 
maxiter 250 
end
%output
Print[P_Hirshfeld] = 1
end
% maxcore
4000
*xyz 1 1
Ir   0.61076372  -0.73046267   0.43752983 
C    0.13019546  -2.84213033   0.35083480 
C   -0.07592176  -2.38017583   1.69907340 
C    2.15382816  -2.07552696   1.16218584 
C    1.49241863  -2.66163678   0.02738591 
C    1.17950483  -1.93340309   2.18469757 
N   -1.06463688   0.11739559  -0.50847411 
C   -2.34088842   0.31907025   0.19514538 
C   -3.13436978   1.51799856  -0.30479015 
H   -3.96689839   1.69654288   0.37391741 
H   -3.56758181   1.35824629  -1.29309181 
H   -2.53068801   2.42551958  -0.32816935 
C   -3.16441122  -0.96217306   0.12482457 
H   -2.06551750   0.50442240   1.23443489 
H   -4.07410381  -0.85189559   0.71371598 
H   -3.45683500  -1.18525274  -0.90206708 
H   -2.62176975  -1.82040340   0.51777276 
C   -0.91062551   0.46041612  -1.73429319 
C    0.40749548   0.29396213  -2.26927697 
H   -1.72221517   0.88008578  -2.32027705 
C    1.46154917   0.10151336  -1.37880769 
C    2.66672526  -0.14918274  -2.10106132 
S    0.87282142   0.20015265  -3.89948680 
C    2.49459776  -0.11879293  -3.45219100 
H    1.63646886   1.14338153  -0.60788501 
H    3.63288971  -0.28589737  -1.63729836 
H    3.24532542  -0.24718269  -4.21711910 
H   -0.61941904  -3.27030925  -0.29853701 
H   -0.99402457  -2.42590956   2.26474014 
H    1.35165513  -1.48794750   3.15443117 
O    1.74391003   2.28934495   0.13779627 
O    0.55917353   1.02267348   1.53140965 
C    1.13409804   2.11033754   1.20974716 
C    1.08543503   3.22735576   2.20982933 
H    0.97082205   4.18508694   1.70720652 
H    2.03301478   3.25904470   2.75026622 
H    0.28624256   3.08537013   2.93175322 
H    3.20583371  -1.85224426   1.24957143 
H    1.95450801  -2.91820396  -0.91470333 
*
