! Opt PBEh-3c
%geom Constraints
{ B 0 20 2.1714285714285713 C }
{ B 24 30 1.342857142857143 C }
    end
end
%output 
xyzfile=True 
end 
%scf 
maxiter 250 
end
%output
Print[P_Hirshfeld] = 1
end
% maxcore
4000
*xyz 1 1
Ir   0.60591921  -0.73150809   0.45216896 
C    0.11922361  -2.83945274   0.35893370 
C   -0.07623299  -2.37367686   1.70753064 
C    2.15190071  -2.08258090   1.15737136 
C    1.47880899  -2.66246047   0.02504822 
C    1.18747798  -1.93537852   2.18615713 
N   -1.06185124   0.11560042  -0.50695855 
C   -2.34133996   0.32154576   0.19057372 
C   -3.13247871   1.51763362  -0.31998262 
H   -3.96664663   1.70173737   0.35528235 
H   -3.56337805   1.35136898  -1.30820637 
H   -2.52810292   2.42453892  -0.34820722 
C   -3.16538575  -0.95952095   0.12525191 
H   -2.07028111   0.51371913   1.22971874 
H   -4.07795713  -0.84437666   0.70874548 
H   -3.45296941  -1.18974140  -0.90144051 
H   -2.62565151  -1.81540930   0.52725913 
C   -0.90482275   0.44865872  -1.73504075 
C    0.41417758   0.28749206  -2.27105647 
H   -1.71791077   0.85861093  -2.32611834 
C    1.48002372   0.12956343  -1.39107773 
C    2.68048973  -0.12272558  -2.11678394 
S    0.86538823   0.16309210  -3.90517010 
C    2.49481543  -0.12478650  -3.46706987 
H    1.63722846   1.15044491  -0.58706626 
H    3.65235918  -0.23818893  -1.65935753 
H    3.23964938  -0.26120341  -4.23637184 
H   -0.63762438  -3.26135196  -0.28618069 
H   -0.99029460  -2.41624335   2.28009523 
H    1.36914161  -1.49247519   3.15533000 
O    1.74588489   2.28002449   0.15729956 
O    0.55061148   1.01930255   1.54699472 
C    1.13159727   2.10478105   1.22733163 
C    1.08379650   3.22228682   2.22640569 
H    0.95606127   4.17804717   1.72295619 
H    2.03687247   3.26359973   2.75636858 
H    0.29311429   3.07544736   2.95659200 
H    3.20495754  -1.86052281   1.23499890 
H    1.93279841  -2.91670187  -0.92158502 
*
