39
Generated by autodE on: 2023-08-14. E = -1288.400270 Ha
Ir    0.62732  -0.70910   0.41864
C     0.09932  -2.81597   0.34412
C     0.06854  -2.35340   1.70533
C     2.21956  -2.09809   0.90406
C     1.40672  -2.65039  -0.15362
C     1.39484  -1.94554   2.03989
N    -1.04559   0.14673  -0.52672
C    -2.30706   0.42721   0.17587
C    -3.09464   1.58239  -0.42332
H    -3.91418   1.83587   0.24768
H    -3.54639   1.33390  -1.38469
H    -2.48162   2.47617  -0.54150
C    -3.14118  -0.84700   0.24662
H    -2.00613   0.70308   1.18741
H    -4.04172  -0.66425   0.83113
H    -3.44923  -1.17384  -0.74736
H    -2.60077  -1.66203   0.72567
C    -0.88658   0.39723  -1.77157
C     0.44644   0.19026  -2.27228
H    -1.68736   0.77985  -2.39674
C     1.51336   0.24533  -1.37219
C     2.73133  -0.08947  -2.04071
S     0.91164  -0.25374  -3.84029
C     2.55534  -0.37928  -3.35694
H     1.52480   1.21340  -0.65758
H     3.70310  -0.06073  -1.56968
H     3.30767  -0.63672  -4.08695
H    -0.74007  -3.20923  -0.21114
H    -0.77452  -2.38566   2.37891
H     1.69930  -1.52002   2.98556
O     1.41016   2.43784   0.17606
O     0.54449   0.96087   1.60088
C     0.95898   2.13520   1.28258
C     0.89054   3.15509   2.38451
H     0.86488   4.16260   1.97848
H     1.78565   3.06733   3.00325
H     0.03168   2.99019   3.03140
H     3.27555  -1.88088   0.85285
H     1.74517  -2.90602  -1.14689
