! Opt PBEh-3c
%geom Constraints
{ B 0 20 2.3857142857142857 C }
{ B 24 30 1.457142857142857 C }
    end
end
%output 
xyzfile=True 
end 
%scf 
maxiter 250 
end
%output
Print[P_Hirshfeld] = 1
end
% maxcore
4000
*xyz 1 1
Ir   0.59993733  -0.71448564   0.44061246 
C    0.04849705  -2.80053235   0.34216818 
C    0.12127055  -2.34619940   1.70855332 
C    2.21128737  -2.12340691   0.76529764 
C    1.31642197  -2.64050905  -0.24547590 
C    1.48439095  -1.97923573   1.96095288 
N   -1.04635035   0.16969533  -0.52482102 
C   -2.31384793   0.49321989   0.14787029 
C   -3.12304576   1.56524213  -0.56407524 
H   -3.94986371   1.86616283   0.07785464 
H   -3.56703821   1.21488555  -1.49730063 
H   -2.53043114   2.45755152  -0.76815719 
C   -3.12296424  -0.78202985   0.35093965 
H   -2.01722653   0.87668182   1.12541367 
H   -4.03330094  -0.55238208   0.90259145 
H   -3.41405099  -1.22312335  -0.60327435 
H   -2.57564139  -1.52728523   0.92636226 
C   -0.85264724   0.37969214  -1.76902576 
C    0.49659297   0.15388368  -2.23854521 
H   -1.63469836   0.74228554  -2.42976763 
C    1.59343719   0.46006574  -1.43857519 
C    2.80134779   0.04838524  -2.07413816 
S    0.93151790  -0.58460932  -3.71091476 
C    2.59618099  -0.52302762  -3.28998308 
H    1.53020201   1.35307286  -0.67599372 
H    3.78482487   0.22161320  -1.66203485 
H    3.33577981  -0.89289062  -3.98393134 
H   -0.83736667  -3.16693045  -0.15645795 
H   -0.67189184  -2.37710311   2.44092991 
H    1.86508276  -1.57923135   2.88977073 
O    1.31090044   2.47093466   0.25534612 
O    0.53404725   0.91697473   1.65409557 
C    0.90616980   2.11883347   1.35997215 
C    0.84233472   3.08825294   2.50742008 
H    0.80243784   4.11148452   2.14407865 
H    1.74463235   2.98338916   3.11307035 
H   -0.00694153   2.88982421   3.15797893 
H    3.25816347  -1.89700628   0.62851047 
H    1.58121942  -2.87295281  -1.26657740 
*
