! Opt PBEh-3c
%geom Constraints
{ B 0 20 2.5571428571428574 C }
{ B 24 30 1.3285714285714287 C }
    end
end
%output 
xyzfile=True 
end 
%scf 
maxiter 250 
end
%output
Print[P_Hirshfeld] = 1
end
% maxcore
4000
*xyz 1 1
Ir   0.56173292  -0.74392142   0.51744615 
C    0.00428842  -2.81804945   0.37663673 
C    0.07421963  -2.38097908   1.75004331 
C    2.16936956  -2.16076896   0.82266209 
C    1.27488529  -2.65173001  -0.20206466 
C    1.44173835  -2.03291023   2.01781358 
N   -1.03873070   0.15129793  -0.50270817 
C   -2.32236467   0.47565480   0.14205160 
C   -3.12537192   1.53440458  -0.59700164 
H   -3.96241416   1.84077822   0.02887691 
H   -3.55459428   1.16930177  -1.53138154 
H   -2.53397429   2.42634454  -0.80612604 
C   -3.13169516  -0.79880389   0.34824067 
H   -2.04802250   0.87533085   1.11998089 
H   -4.05734078  -0.56330230   0.87127570 
H   -3.39607264  -1.25880961  -0.60487880 
H   -2.59836382  -1.53134788   0.95248106 
C   -0.82637910   0.35542834  -1.74659950 
C    0.52307413   0.16393991  -2.22633982 
H   -1.61376537   0.69758142  -2.41268183 
C    1.63309688   0.53286139  -1.47805000 
C    2.82881798   0.15692817  -2.15220190 
S    0.93218418  -0.55834605  -3.72392763 
C    2.60357434  -0.42828192  -3.36033647 
H    1.54409393   1.41562996  -0.62890146 
H    3.82083620   0.36418421  -1.77763979 
H    3.33448874  -0.77446243  -4.07558681 
H   -0.88183620  -3.17079404  -0.13122638 
H   -0.72289334  -2.41920811   2.47809066 
H    1.82191910  -1.65471874   2.95587550 
O    1.35818696   2.40960789   0.25467750 
O    0.53936077   0.91338792   1.69392386 
C    0.94010331   2.09329180   1.37132462 
C    0.90322553   3.10142325   2.48334275 
H    0.85327155   4.11154152   2.08601933 
H    1.82216883   3.01881468   3.06721902 
H    0.07140027   2.92368204   3.16134619 
H    3.21548659  -1.92861635   0.68779586 
H    1.54166550  -2.85717473  -1.22873142 
*
