! Opt PBEh-3c
%geom Constraints
{ B 0 20 2.3857142857142857 C }
{ B 24 30 1.3285714285714287 C }
    end
end
%output 
xyzfile=True 
end 
%scf 
maxiter 250 
end
%output
Print[P_Hirshfeld] = 1
end
% maxcore
4000
*xyz 1 1
Ir   0.59576382  -0.73761285   0.49837076 
C    0.07520865  -2.82899272   0.36643443 
C   -0.00272557  -2.36953225   1.73013815 
C    2.17806971  -2.12607419   1.01428753 
C    1.39952769  -2.65921202  -0.07940304 
C    1.31816000  -1.98187775   2.12123825 
N   -1.03694724   0.12634870  -0.49991745 
C   -2.31732221   0.39494916   0.17730346 
C   -3.08981812   1.56121762  -0.42126035 
H   -3.92192333   1.80819067   0.23667518 
H   -3.52307399   1.32858192  -1.39490605 
H   -2.47191610   2.45438847  -0.51566617 
C   -3.15561192  -0.87776908   0.20558011 
H   -2.04462770   0.65672322   1.20065796 
H   -4.07003737  -0.70526603   0.77150022 
H   -3.44014075  -1.18516757  -0.80159950 
H   -2.62905489  -1.70416802   0.68065189 
C   -0.86619003   0.37293125  -1.74463165 
C    0.46362200   0.20439129  -2.26832275 
H   -1.67804588   0.72996609  -2.37200442 
C    1.57230368   0.34485020  -1.44394815 
C    2.76210671   0.02417110  -2.15455854 
S    0.86754479  -0.25521596  -3.86044701 
C    2.53178992  -0.30682921  -3.45600512 
H    1.57048260   1.28496824  -0.60258103 
H    3.75462925   0.09281163  -1.73356362 
H    3.25816985  -0.55849001  -4.21394328 
H   -0.74497857  -3.21397715  -0.22216200 
H   -0.86833477  -2.40771196   2.37471622 
H    1.59066597  -1.56954403   3.08245300 
O    1.49770532   2.36525935   0.19173623 
O    0.54837423   0.96078095   1.63820819 
C    1.00744726   2.10719989   1.30006954 
C    0.95811947   3.16724643   2.36108357 
H    0.89725163   4.15692813   1.91612350 
H    1.87997953   3.12446537   2.94445105 
H    0.12821212   3.01137849   3.04601111 
H    3.23381897  -1.90213688   0.99535216 
H    1.77116533  -2.88898047  -1.06738230 
*
