39
Generated by autodE on: 2023-08-13. E = -1288.397140 Ha
Ir    0.58070  -0.72777   0.46403
C     0.02551  -2.80741   0.33741
C     0.11759  -2.36326   1.70811
C     2.19508  -2.14164   0.74396
C     1.28577  -2.64254  -0.26255
C     1.48813  -2.01081   1.95117
N    -1.04246   0.17838  -0.51664
C    -2.31305   0.51977   0.14166
C    -3.13552   1.54717  -0.61851
H    -3.96885   1.86275   0.00764
H    -3.57038   1.14836  -1.53650
H    -2.55732   2.43965  -0.86010
C    -3.10931  -0.75193   0.40680
H    -2.01919   0.95233   1.09961
H    -4.02261  -0.50419   0.94553
H    -3.39549  -1.24219  -0.52470
H    -2.55694  -1.46260   1.01997
C    -0.82815   0.38341  -1.75744
C     0.52596   0.14920  -2.21787
H    -1.59954   0.74906  -2.42927
C     1.63595   0.54919  -1.48399
C     2.83514   0.11816  -2.12144
S     0.93994  -0.68091  -3.65381
C     2.61244  -0.54696  -3.28566
H     1.55006   1.40893  -0.69506
H     3.82470   0.34298  -1.75090
H     3.34381  -0.95093  -3.96928
H    -0.86852  -3.16512  -0.15279
H    -0.66639  -2.39970   2.45041
H     1.88257  -1.62519   2.88031
O     1.28182   2.46075   0.27703
O     0.53825   0.89326   1.68060
C     0.89338   2.10232   1.38368
C     0.82732   3.06564   2.53612
H     0.77665   4.08979   2.17663
H     1.73356   2.96663   3.13682
H    -0.01673   2.85791   3.19063
H     3.23821  -1.90764   0.59057
H     1.53730  -2.85567  -1.29144
