! Opt PBEh-3c
%geom Constraints
{ B 0 20 2.0 C }
{ B 24 30 1.3714285714285714 C }
    end
end
%output 
xyzfile=True 
end 
%scf 
maxiter 250 
end
%output
Print[P_Hirshfeld] = 1
end
% maxcore
4000
*xyz 1 1
Ir   0.61907424  -0.73718800   0.39713185 
C    0.17160677  -2.85706996   0.32134659 
C   -0.09541126  -2.42413648   1.67002285 
C    2.14240677  -2.05253231   1.21864775 
C    1.54817331  -2.65791272   0.06293144 
C    1.11609784  -1.94644205   2.20546676 
N   -1.07819091   0.11021800  -0.50874957 
C   -2.34482515   0.29552558   0.21379436 
C   -3.13462471   1.51662348  -0.23509523 
H   -3.96320822   1.67241802   0.45388581 
H   -3.57244686   1.39858402  -1.22723033 
H   -2.52594421   2.42109422  -0.22532854 
C   -3.17558994  -0.97858782   0.10586756 
H   -2.05777389   0.44204518   1.25621259 
H   -4.07422210  -0.88950152   0.71499330 
H   -3.48668059  -1.15808785  -0.92404220 
H   -2.62859498  -1.85410653   0.45192388 
C   -0.93409841   0.48511890  -1.72733267 
C    0.38130611   0.30720818  -2.25996213 
H   -1.74234265   0.93243413  -2.29629442 
C    1.39373477   0.00242296  -1.34244911 
C    2.62004720  -0.21766758  -2.05168697 
S    0.90340940   0.34984376  -3.87112196 
C    2.49859540  -0.05805293  -3.39794658 
H    1.61822220   1.15250579  -0.70306495 
H    3.56538066  -0.42573107  -1.57134731 
H    3.27388195  -0.13867547  -4.14471188 
H   -0.53678447  -3.30957883  -0.35698874 
H   -1.03834989  -2.48512097   2.19127419 
H    1.23576706  -1.50149506   3.18314654 
O    1.72811764   2.32098610   0.03367166 
O    0.60540571   1.03983306   1.46729959 
C    1.15426113   2.13068211   1.12734044 
C    1.12965440   3.25027324   2.12577212 
H    1.01828421   4.20950720   1.62569399 
H    2.08345025   3.27066226   2.65590308 
H    0.33804270   3.11460924   2.85720834 
H    3.18660182  -1.82090932   1.36058400 
H    2.05693675  -2.91060895  -0.85602589 
*
