39
Coordinates from ORCA-job reaction4-IEIP_ts_guess_scan_9-7_orca E -1288.400880860350
  Ir      0.620522     -0.715914      0.434655
  C       0.099326     -2.818348      0.340301
  C       0.030644     -2.357934      1.701570
  C       2.204984     -2.099670      0.959474
  C       1.420644     -2.649659     -0.120060
  C       1.348349     -1.950632      2.073312
  N      -1.047482      0.137658     -0.519757
  C      -2.315517      0.397554      0.180663
  C      -3.102155      1.566012     -0.394866
  H      -3.925699      1.801803      0.277690
  H      -3.548263      1.340460     -1.364412
  H      -2.490234      2.463389     -0.488791
  C      -3.148837     -0.878681      0.211732
  H      -2.024888      0.650146      1.201285
  H      -4.054133     -0.713663      0.794313
  H      -3.449153     -1.178518     -0.793105
  H      -2.611188     -1.706696      0.671099
  C      -0.890436      0.403096     -1.757412
  C       0.438071      0.210448     -2.258243
  H      -1.694574      0.786303     -2.378216
  C       1.504353      0.231255     -1.361111
  C       2.717258     -0.084350     -2.043645
  S       0.898912     -0.165516     -3.848753
  C       2.539122     -0.316757     -3.372432
  H       1.529991      1.205735     -0.595419
  H       3.690382     -0.082601     -1.574478
  H       3.291005     -0.546156     -4.112251
  H      -0.723227     -3.212705     -0.238786
  H      -0.829863     -2.394381      2.352556
  H       1.626633     -1.526557      3.027735
  O       1.491740      2.386461      0.155862
  O       0.550171      0.973729      1.595089
  C       1.003581      2.124602      1.262553
  C       0.945643      3.178957      2.330067
  H       0.920497      4.173116      1.892035
  H       1.846000      3.109031      2.943421
  H       0.090835      3.036553      2.987080
  H       3.261572     -1.880805      0.936235
  H       1.784786     -2.897573     -1.106254
39
Coordinates from ORCA-job reaction4-IEIP_ts_guess_scan_9-7_orca E -1288.400692466075
  Ir      0.616510     -0.706809      0.429565
  C       0.103349     -2.813708      0.340999
  C       0.032960     -2.352935      1.701886
  C       2.205267     -2.085062      0.959527
  C       1.423939     -2.640522     -0.119194
  C       1.347426     -1.938103      2.072456
  N      -1.058456      0.136061     -0.523956
  C      -2.326404      0.395078      0.177061
  C      -3.117672      1.557819     -0.403662
  H      -3.941604      1.793903      0.268288
  H      -3.563545      1.325828     -1.371803
  H      -2.509148      2.457004     -0.502473
  C      -3.155215     -0.883849      0.215578
  H      -2.035603      0.653779      1.196118
  H      -4.060223     -0.719256      0.798714
  H      -3.455984     -1.189598     -0.787353
  H      -2.613900     -1.707703      0.678105
  C      -0.901499      0.394496     -1.767868
  C       0.430598      0.204981     -2.271134
  H      -1.707626      0.770726     -2.390337
  C       1.495443      0.233686     -1.372103
  C       2.711012     -0.080413     -2.051153
  S       0.895575     -0.176597     -3.858960
  C       2.535871     -0.320366     -3.378966
  H       1.520698      1.232657     -0.626511
  H       3.683594     -0.070825     -1.580778
  H       3.289985     -0.550466     -4.116201
  H      -0.717344     -3.212806     -0.237525
  H      -0.827065     -2.393060      2.353195
  H       1.623447     -1.511659      3.026478
  O       1.605930      2.351094      0.211245
  O       0.533124      0.983604      1.594504
  C       1.041929      2.116777      1.288143
  C       0.960672      3.178274      2.346730
  H       0.997067      4.170429      1.904878
  H       1.820878      3.079115      3.011530
  H       0.064632      3.070103      2.953282
  H       3.261165     -1.862922      0.936990
  H       1.789587     -2.889565     -1.104557
39
Coordinates from ORCA-job reaction4-IEIP_ts_guess_scan_9-7_orca E -1288.400363662774
  Ir      0.626177     -0.713186      0.430348
  C       0.102342     -2.821512      0.337408
  C       0.034374     -2.369804      1.701236
  C       2.205896     -2.104042      0.959512
  C       1.423647     -2.651998     -0.121912
  C       1.347402     -1.959171      2.072149
  N      -1.048959      0.142027     -0.512107
  C      -2.315916      0.401189      0.190367
  C      -3.100598      1.572459     -0.382083
  H      -3.925003      1.806454      0.289969
  H      -3.545144      1.350692     -1.353260
  H      -2.487975      2.469835     -0.471892
  C      -3.150884     -0.873979      0.216975
  H      -2.025199      0.649597      1.212024
  H      -4.055404     -0.710456      0.801149
  H      -3.452616     -1.169271     -0.788818
  H      -2.613545     -1.704418      0.672292
  C      -0.884099      0.413015     -1.761803
  C       0.452734      0.219727     -2.273577
  H      -1.687890      0.799180     -2.381153
  C       1.516566      0.217418     -1.370831
  C       2.728436     -0.112862     -2.050163
  S       0.916280     -0.150085     -3.864275
  C       2.552662     -0.333649     -3.380967
  H       1.579072      1.244025     -0.639902
  H       3.700045     -0.124778     -1.577498
  H       3.304652     -0.569797     -4.118305
  H      -0.719768     -3.215194     -0.242893
  H      -0.825093     -2.411409      2.352973
  H       1.624408     -1.538726      3.028537
  O       1.411121      2.391366      0.144573
  O       0.542122      0.974875      1.611696
  C       0.966677      2.130530      1.271296
  C       0.928659      3.188628      2.334914
  H       0.871692      4.180507      1.894460
  H       1.850809      3.136113      2.916772
  H       0.099562      3.034338      3.021198
  H       3.263152     -1.888415      0.939998
  H       1.788975     -2.900035     -1.107668
39
Coordinates from ORCA-job reaction4-IEIP_ts_guess_scan_9-7_orca E -1288.401148282821
  Ir      0.618361     -0.716561      0.434181
  C       0.092526     -2.821341      0.351080
  C       0.026148     -2.360733      1.711953
  C       2.198579     -2.103166      0.966410
  C       1.413792     -2.655734     -0.111004
  C       1.341780     -1.950854      2.079867
  N      -1.051816      0.135436     -0.516876
  C      -2.320809      0.391098      0.181795
  C      -3.108072      1.559411     -0.393080
  H      -3.934455      1.791583      0.277258
  H      -3.550168      1.335333     -1.364821
  H      -2.497853      2.458384     -0.482601
  C      -3.151563     -0.886932      0.207856
  H      -2.032468      0.641233      1.203630
  H      -4.057764     -0.725713      0.790103
  H      -3.450238     -1.184156     -0.798231
  H      -2.612407     -1.715156      0.665101
  C      -0.891229      0.407071     -1.758534
  C       0.441286      0.221118     -2.265673
  H      -1.696201      0.792372     -2.376792
  C       1.505514      0.221920     -1.364506
  C       2.720436     -0.088562     -2.047271
  S       0.906090     -0.135234     -3.858907
  C       2.545928     -0.296640     -3.380492
  H       1.544216      1.215250     -0.603415
  H       3.692110     -0.096062     -1.575028
  H       3.299600     -0.515585     -4.121635
  H      -0.730889     -3.216556     -0.226215
  H      -0.833286     -2.396114      2.364241
  H       1.620641     -1.524756      3.033211
  O       1.500114      2.393877      0.150836
  O       0.552540      0.979975      1.590235
  C       1.011660      2.128278      1.258690
  C       0.957826      3.182903      2.325093
  H       0.933349      4.177079      1.887023
  H       1.859254      3.111531      2.936638
  H       0.103854      3.041434      2.983229
  H       3.255824     -1.887689      0.943620
  H       1.777159     -2.908552     -1.096228
39
Coordinates from ORCA-job reaction4-IEIP_ts_guess_scan_9-7_orca E -1288.401226175757
  Ir      0.618791     -0.715148      0.433589
  C       0.095371     -2.820584      0.351730
  C       0.026566     -2.360219      1.712372
  C       2.199641     -2.099796      0.969623
  C       1.417178     -2.653810     -0.108525
  C       1.340854     -1.948213      2.081654
  N      -1.052272      0.134556     -0.518753
  C      -2.321108      0.390835      0.180319
  C      -3.109270      1.558525     -0.394697
  H      -3.935083      1.791022      0.276210
  H      -3.552288      1.333572     -1.365794
  H      -2.499373      2.457594     -0.485501
  C      -3.152079     -0.887060      0.208585
  H      -2.032113      0.642065      1.201800
  H      -4.057845     -0.725068      0.791319
  H      -3.451507     -1.185388     -0.796948
  H      -2.612717     -1.714775      0.666393
  C      -0.892488      0.405453     -1.760528
  C       0.439075      0.219640     -2.269064
  H      -1.698126      0.790120     -2.378243
  C       1.503374      0.219541     -1.368336
  C       2.717838     -0.089680     -2.052049
  S       0.903759     -0.128003     -3.864123
  C       2.542408     -0.298237     -3.385117
  H       1.545019      1.221410     -0.617248
  H       3.689593     -0.099086     -1.580067
  H       3.295456     -0.518375     -4.126500
  H      -0.726674     -3.216979     -0.226676
  H      -0.833765     -2.396331      2.363420
  H       1.617820     -1.521320      3.035207
  O       1.522194      2.382715      0.164320
  O       0.546599      0.981087      1.591369
  C       1.014133      2.126050      1.265219
  C       0.957701      3.182788      2.329798
  H       0.946656      4.176576      1.890312
  H       1.851708      3.104584      2.951396
  H       0.095356      3.049577      2.978688
  H       3.256764     -1.883540      0.948628
  H       1.782225     -2.906905     -1.093042
39
Coordinates from ORCA-job reaction4-IEIP_ts_guess_scan_9-7_orca E -1288.401255220114
  Ir      0.618980     -0.717597      0.434832
  C       0.093252     -2.822454      0.355428
  C       0.024087     -2.361662      1.715794
  C       2.197801     -2.103401      0.973908
  C       1.415606     -2.657480     -0.104247
  C       1.338174     -1.950180      2.085216
  N      -1.051460      0.133688     -0.518249
  C      -2.320669      0.389133      0.180746
  C      -3.108717      1.557961     -0.392190
  H      -3.934587      1.789199      0.279059
  H      -3.551700      1.334866     -1.363732
  H      -2.498815      2.457216     -0.481231
  C      -3.152124     -0.888523      0.206695
  H      -2.032047      0.638550      1.202799
  H      -4.058000     -0.727188      0.789432
  H      -3.451352     -1.185053     -0.799436
  H      -2.613180     -1.717175      0.663266
  C      -0.891282      0.407047     -1.759781
  C       0.439743      0.221370     -2.269737
  H      -1.697040      0.792983     -2.376577
  C       1.503663      0.214063     -1.368611
  C       2.718332     -0.090815     -2.053937
  S       0.904362     -0.118253     -3.866401
  C       2.543701     -0.286542     -3.389093
  H       1.548390      1.218949     -0.619004
  H       3.689890     -0.103841     -1.581643
  H       3.297156     -0.499277     -4.132212
  H      -0.728782     -3.218447     -0.223282
  H      -0.836715     -2.396339      2.366271
  H       1.614927     -1.522663      3.038556
  O       1.522587      2.381418      0.160740
  O       0.549513      0.981042      1.590522
  C       1.018530      2.124694      1.263775
  C       0.958253      3.184871      2.324778
  H       0.943471      4.177215      1.882120
  H       1.852700      3.111883      2.946324
  H       0.096534      3.050609      2.974306
  H       3.255247     -1.888699      0.953827
  H       1.780942     -2.911978     -1.088290
39
Coordinates from ORCA-job reaction4-IEIP_ts_guess_scan_9-7_orca E -1288.401303966744
  Ir      0.617811     -0.722945      0.438186
  C       0.088514     -2.826449      0.365550
  C       0.016556     -2.363567      1.724840
  C       2.192536     -2.109294      0.987206
  C       1.412603     -2.664997     -0.091391
  C       1.329524     -1.951983      2.095769
  N      -1.050541      0.130111     -0.517940
  C      -2.320965      0.382462      0.180345
  C      -3.109163      1.553485     -0.388025
  H      -3.935677      1.781100      0.283621
  H      -3.551354      1.334592     -1.360892
  H      -2.499795      2.453564     -0.472488
  C      -3.152543     -0.895273      0.199924
  H      -2.033935      0.627659      1.203905
  H      -4.059217     -0.736288      0.782041
  H      -3.450336     -1.187544     -0.807889
  H      -2.614294     -1.725858      0.653742
  C      -0.889595      0.410685     -1.757993
  C       0.440294      0.228266     -2.270748
  H      -1.695657      0.800529     -2.372002
  C       1.502991      0.201808     -1.368565
  C       2.718408     -0.091002     -2.057939
  S       0.907004     -0.077988     -3.873171
  C       2.545322     -0.258671     -3.397203
  H       1.553786      1.210913     -0.619080
  H       3.689123     -0.116570     -1.584450
  H       3.299297     -0.457578     -4.143607
  H      -0.732465     -3.222620     -0.214553
  H      -0.846136     -2.394819      2.372929
  H       1.604392     -1.521852      3.048494
  O       1.520655      2.381446      0.148224
  O       0.554321      0.982798      1.585607
  C       1.020856      2.125212      1.254216
  C       0.968171      3.188290      2.312867
  H       0.947892      4.179424      1.867763
  H       1.868195      3.118436      2.926666
  H       0.112369      3.054247      2.970206
  H       3.250570     -1.897357      0.970320
  H       1.779854     -2.923180     -1.073747
39
Coordinates from ORCA-job reaction4-IEIP_ts_guess_scan_9-7_orca E -1288.401329226338
  Ir      0.617229     -0.726420      0.440254
  C       0.086169     -2.828664      0.371140
  C       0.010202     -2.363936      1.729543
  C       2.188985     -2.112440      0.998235
  C       1.412182     -2.669503     -0.081724
  C       1.322084     -1.952294      2.103621
  N      -1.049198      0.127499     -0.517776
  C      -2.319866      0.377802      0.180779
  C      -3.108277      1.550173     -0.384576
  H      -3.934745      1.775760      0.287798
  H      -3.550548      1.333785     -1.357973
  H      -2.499161      2.450633     -0.466756
  C      -3.151477     -0.899980      0.196575
  H      -2.033363      0.620532      1.205094
  H      -4.058623     -0.742442      0.778368
  H      -3.448452     -1.189658     -0.812220
  H      -2.613681     -1.731806      0.648602
  C      -0.888989      0.413349     -1.756270
  C       0.439270      0.233052     -2.271438
  H      -1.695626      0.806215     -2.367554
  C       1.501882      0.192324     -1.369818
  C       2.716942     -0.091784     -2.063257
  S       0.906277     -0.046057     -3.878556
  C       2.543612     -0.238849     -3.405016
  H       1.557459      1.203092     -0.619952
  H       3.687414     -0.127875     -1.590025
  H       3.297144     -0.428422     -4.154296
  H      -0.733034     -3.225234     -0.211174
  H      -0.854780     -2.392743      2.374667
  H       1.594282     -1.520146      3.056212
  O       1.535903      2.374593      0.146286
  O       0.555746      0.983624      1.581747
  C       1.028172      2.122946      1.250128
  C       0.971842      3.190803      2.303811
  H       0.953728      4.179900      1.854097
  H       1.869617      3.123359      2.921152
  H       0.113478      3.060104      2.958426
  H       3.247375     -1.902052      0.984993
  H       1.782195     -2.930052     -1.062407
39
Coordinates from ORCA-job reaction4-IEIP_ts_guess_scan_9-7_orca E -1288.401340861218
  Ir      0.616723     -0.727917      0.441642
  C       0.085210     -2.829561      0.374001
  C       0.004654     -2.362921      1.731630
  C       2.186332     -2.113459      1.007675
  C       1.413096     -2.671751     -0.074148
  C       1.315399     -1.951285      2.109723
  N      -1.048837      0.126439     -0.517502
  C      -2.320060      0.373997      0.181213
  C      -3.109525      1.546858     -0.381811
  H      -3.936144      1.770255      0.291109
  H      -3.551659      1.332092     -1.355628
  H      -2.501279      2.448063     -0.462221
  C      -3.150689     -0.904467      0.193474
  H      -2.034426      0.614906      1.206183
  H      -4.058624     -0.748918      0.774603
  H      -3.446335     -1.192206     -0.816260
  H      -2.612863     -1.736961      0.644154
  C      -0.888958      0.416603     -1.754992
  C       0.438252      0.237168     -2.271838
  H      -1.695990      0.811272     -2.364502
  C       1.501217      0.185327     -1.371289
  C       2.715475     -0.093705     -2.067862
  S       0.904443     -0.025755     -3.881967
  C       2.541598     -0.224368     -3.411362
  H       1.561596      1.195695     -0.619260
  H       3.685998     -0.137380     -1.595413
  H       3.294674     -0.406443     -4.162959
  H      -0.731826     -3.226934     -0.210779
  H      -0.862636     -2.390230      2.373720
  H       1.584510     -1.517646      3.062520
  O       1.551404      2.367451      0.146823
  O       0.555296      0.985230      1.579453
  C       1.033008      2.122069      1.247219
  C       0.976908      3.192965      2.297739
  H       0.963113      4.180698      1.844855
  H       1.872834      3.124829      2.917679
  H       0.116251      3.066829      2.950162
  H       3.244903     -1.903810      0.998154
  H       1.786328     -2.933837     -1.053197
39
Coordinates from ORCA-job reaction4-IEIP_ts_guess_scan_9-7_orca E -1288.401350382579
  Ir      0.616809     -0.728340      0.442429
  C       0.085818     -2.829805      0.374256
  C      -0.000518     -2.361460      1.731213
  C       2.184507     -2.113350      1.016598
  C       1.415796     -2.672606     -0.067912
  C       1.308750     -1.949934      2.114718
  N      -1.048445      0.126538     -0.516543
  C      -2.320182      0.370708      0.182644
  C      -3.111115      1.544047     -0.377536
  H      -3.937829      1.764852      0.296118
  H      -3.553201      1.331066     -1.351769
  H      -2.503983      2.446172     -0.456015
  C      -3.149471     -0.908648      0.190674
  H      -2.035396      0.609434      1.208336
  H      -4.058316     -0.755645      0.771089
  H      -3.443610     -1.194045     -0.820161
  H      -2.611504     -1.741933      0.639629
  C      -0.888879      0.421639     -1.753058
  C       0.437427      0.243001     -2.271769
  H      -1.696201      0.818699     -2.360530
  C       1.501278      0.179524     -1.373213
  C       2.713796     -0.097465     -2.073100
  S       0.902015     -0.003467     -3.885183
  C       2.537878     -0.216337     -3.417588
  H       1.568580      1.187203     -0.616272
  H       3.684574     -0.149953     -1.602096
  H       3.289510     -0.395654     -4.171287
  H      -0.728394     -3.228250     -0.213687
  H      -0.870456     -2.388101      2.369760
  H       1.573906     -1.515310      3.068183
  O       1.571163      2.358783      0.150144
  O       0.554547      0.986691      1.577907
  C       1.041280      2.120152      1.246486
  C       0.979010      3.195703      2.291695
  H       0.968995      4.181222      1.833822
  H       1.871006      3.130026      2.917477
  H       0.113974      3.073390      2.938961
  H       3.243142     -1.903907      1.011519
  H       1.793109     -2.935446     -1.045198
39
Coordinates from ORCA-job reaction4-IEIP_ts_guess_scan_9-7_orca E -1288.401358799348
  Ir      0.616824     -0.727200      0.442879
  C       0.088134     -2.829282      0.372527
  C      -0.006143     -2.359217      1.728706
  C       2.182913     -2.110928      1.026557
  C       1.420577     -2.671548     -0.061648
  C       1.300780     -1.947233      2.119606
  N      -1.048572      0.127796     -0.515231
  C      -2.321038      0.367841      0.184067
  C      -3.114218      1.540877     -0.373789
  H      -3.941360      1.758675      0.300287
  H      -3.555822      1.328943     -1.348483
  H      -2.508883      2.444359     -0.450493
  C      -3.148085     -0.912976      0.187782
  H      -2.037434      0.604783      1.210493
  H      -4.058157     -0.763131      0.767133
  H      -3.440187     -1.196340     -0.824217
  H      -2.609599     -1.746683      0.635264
  C      -0.889201      0.427730     -1.750819
  C       0.436103      0.249552     -2.271551
  H      -1.696891      0.826877     -2.356386
  C       1.501196      0.174626     -1.375818
  C       2.711160     -0.102728     -2.079229
  S       0.897243      0.012898     -3.887851
  C       2.532439     -0.210656     -3.424496
  H       1.578254      1.177738     -0.611679
  H       3.682528     -0.162946     -1.610402
  H       3.282275     -0.387854     -4.180477
  H      -0.722104     -3.229583     -0.219581
  H      -0.879346     -2.386388      2.362786
  H       1.560308     -1.511809      3.074262
  O       1.594165      2.348261      0.156189
  O       0.552141      0.988582      1.577057
  C       1.050255      2.117891      1.247189
  C       0.982760      3.197944      2.287226
  H       0.977286      4.181263      1.824440
  H       1.870839      3.134193      2.918681
  H       0.113322      3.080078      2.929303
  H       3.241412     -1.900772      1.027197
  H       1.803497     -2.934443     -1.036741
39
Coordinates from ORCA-job reaction4-IEIP_ts_guess_scan_9-7_orca E -1288.401361274808
  Ir      0.616190     -0.724153      0.443178
  C       0.093555     -2.828302      0.368711
  C      -0.013970     -2.356283      1.723703
  C       2.180941     -2.104381      1.041492
  C       1.429580     -2.667925     -0.052604
  C       1.288365     -1.941914      2.126446
  N      -1.050338      0.130120     -0.513663
  C      -2.324273      0.363789      0.185093
  C      -3.121360      1.535717     -0.369797
  H      -3.949576      1.748600      0.304475
  H      -3.561732      1.324782     -1.345287
  H      -2.519312      2.441620     -0.443750
  C      -3.147384     -0.919586      0.182621
  H      -2.042828      0.598405      1.212656
  H      -4.059297     -0.774835      0.760414
  H      -3.436387     -1.200104     -0.831068
  H      -2.607673     -1.753600      0.627965
  C      -0.890796      0.436244     -1.748010
  C       0.433242      0.259156     -2.271333
  H      -1.698968      0.837800     -2.351329
  C       1.499986      0.169668     -1.379746
  C       2.706110     -0.109993     -2.087938
  S       0.888721      0.030993     -3.891160
  C       2.523131     -0.205764     -3.433879
  H       1.593457      1.164928     -0.603761
  H       3.678461     -0.179203     -1.622426
  H       3.270342     -0.381549     -4.192780
  H      -0.709914     -3.232306     -0.230012
  H      -0.892164     -2.386040      2.350757
  H       1.538144     -1.505316      3.083180
  O       1.630537      2.332678      0.167591
  O       0.547634      0.992711      1.576081
  C       1.065434      2.114661      1.250039
  C       0.992798      3.200749      2.283271
  H       0.994072      4.181131      1.814064
  H       1.876052      3.138898      2.921548
  H       0.117876      3.089667      2.918940
  H       3.238902     -1.891832      1.051281
  H       1.821811     -2.930038     -1.024221
39
Coordinates from ORCA-job reaction4-IEIP_ts_guess_scan_9-7_orca E -1288.401362018127
  Ir      0.614927     -0.721871      0.442949
  C       0.097617     -2.827760      0.365981
  C      -0.017903     -2.355482      1.720391
  C       2.179840     -2.098548      1.049473
  C       1.435462     -2.664477     -0.047953
  C       1.281061     -1.938134      2.129794
  N      -1.052474      0.131005     -0.513411
  C      -2.327155      0.361748      0.184740
  C      -3.126212      1.532804     -0.369163
  H      -3.955172      1.743241      0.304928
  H      -3.565699      1.322010     -1.345096
  H      -2.525946      2.439994     -0.441777
  C      -3.148102     -0.923042      0.179774
  H      -2.046812      0.595548      1.212814
  H      -4.060634     -0.780924      0.757254
  H      -3.436024     -1.202245     -0.834593
  H      -2.607322     -1.757038      0.623859
  C      -0.892728      0.439159     -1.747255
  C       0.430854      0.263107     -2.271545
  H      -1.701182      0.841275     -2.349881
  C       1.498226      0.168970     -1.381673
  C       2.702749     -0.112477     -2.091735
  S       0.883592      0.035581     -3.892525
  C       2.517893     -0.205091     -3.437754
  H       1.601005      1.160083     -0.599894
  H       3.675602     -0.184060     -1.627623
  H       3.264019     -0.380998     -4.197697
  H      -0.701684     -3.234324     -0.236550
  H      -0.898868     -2.387908      2.343402
  H       1.524628     -1.500746      3.087778
  O       1.649506      2.325713      0.174028
  O       0.544441      0.995752      1.574734
  C       1.074052      2.113142      1.252086
  C       1.001778      3.201192      2.283316
  H       1.005470      4.180631      1.812061
  H       1.884271      3.139473      2.922633
  H       0.125751      3.093033      2.917896
  H       3.237259     -1.883662      1.064582
  H       1.833285     -2.925484     -1.017609
39
Coordinates from ORCA-job reaction4-IEIP_ts_guess_scan_9-7_orca E -1288.401365171709
  Ir      0.612182     -0.719118      0.442363
  C       0.103645     -2.827546      0.362413
  C      -0.022529     -2.356024      1.716238
  C       2.178306     -2.089318      1.059536
  C       1.443637     -2.659123     -0.042096
  C       1.271317     -1.932938      2.133931
  N      -1.056584      0.130959     -0.514106
  C      -2.332023      0.359047      0.183217
  C      -3.132803      1.529315     -0.369704
  H      -3.962708      1.737144      0.304010
  H      -3.571144      1.318900     -1.346241
  H      -2.534266      2.437776     -0.440521
  C      -3.150835     -0.927169      0.175952
  H      -2.052782      0.591951      1.211832
  H      -4.063386     -0.787973      0.754109
  H      -3.438641     -1.204505     -0.838968
  H      -2.608399     -1.761292      0.617799
  C      -0.896572      0.439952     -1.747565
  C       0.426835      0.265552     -2.272360
  H      -1.705378      0.841732     -2.350048
  C       1.494590      0.170030     -1.383516
  C       2.698176     -0.112948     -2.094880
  S       0.877430      0.036096     -3.893797
  C       2.512013     -0.205145     -3.440768
  H       1.608180      1.157351     -0.597020
  H       3.671485     -0.184392     -1.631676
  H       3.257473     -0.381339     -4.201297
  H      -0.690026     -3.237734     -0.245068
  H      -0.907071     -2.392827      2.333888
  H       1.506273     -1.494252      3.093484
  O       1.670780      2.319777      0.180698
  O       0.540139      1.000631      1.571373
  C       1.084770      2.112005      1.254209
  C       1.017311      3.200613      2.285341
  H       1.021171      4.179777      1.813416
  H       1.902049      3.138386      2.921497
  H       0.143107      3.094446      2.922682
  H       3.234792     -1.870544      1.081650
  H       1.848855     -2.918060     -1.009270
39
Coordinates from ORCA-job reaction4-IEIP_ts_guess_scan_9-7_orca E -1288.401368523837
  Ir      0.609944     -0.718297      0.441937
  C       0.107200     -2.827906      0.360479
  C      -0.025552     -2.357495      1.714084
  C       2.177017     -2.083651      1.065879
  C       1.448509     -2.656019     -0.038313
  C       1.264926     -1.930164      2.136681
  N      -1.059457      0.129806     -0.515098
  C      -2.335034      0.357066      0.182111
  C      -3.135943      1.527635     -0.369829
  H      -3.966232      1.734311      0.303772
  H      -3.573787      1.318249     -1.346807
  H      -2.537683      2.436376     -0.439200
  C      -3.153339     -0.929510      0.173612
  H      -2.056036      0.589073      1.211001
  H      -4.065178     -0.791801      0.753234
  H      -3.442281     -1.205072     -0.841466
  H      -2.609790     -1.764166      0.613120
  C      -0.899545      0.438519     -1.748440
  C       0.424026      0.265076     -2.273128
  H      -1.708580      0.839561     -2.351158
  C       1.491763      0.171214     -1.384050
  C       2.695635     -0.111387     -2.095602
  S       0.874663      0.035017     -3.894301
  C       2.509612     -0.204389     -3.441368
  H       1.610279      1.158116     -0.597803
  H       3.668988     -0.181456     -1.632256
  H       3.255157     -0.380177     -4.201909
  H      -0.682982     -3.240162     -0.250139
  H      -0.912464     -2.396809      2.328148
  H       1.494469     -1.490487      3.097095
  O       1.681008      2.318312      0.182546
  O       0.537790      1.003929      1.567609
  C       1.090487      2.111981      1.254117
  C       1.027963      3.199771      2.286526
  H       1.028747      4.179241      1.815157
  H       1.916532      3.137922      2.917376
  H       0.157408      3.092885      2.928660
  H       3.232887     -1.862450      1.092464
  H       1.858241     -2.913471     -1.004002
39
Coordinates from ORCA-job reaction4-IEIP_ts_guess_scan_9-7_orca E -1288.401370544847
  Ir      0.608674     -0.718721      0.441726
  C       0.109438     -2.828555      0.359087
  C      -0.027854     -2.359106      1.712640
  C       2.176106     -2.080872      1.070540
  C       1.451791     -2.654640     -0.035583
  C       1.260445     -1.929192      2.138809
  N      -1.061027      0.128425     -0.515691
  C      -2.336425      0.355438      0.181980
  C      -3.136503      1.527293     -0.368364
  H      -3.966845      1.733383      0.305369
  H      -3.574198      1.319850     -1.345813
  H      -2.537604      2.435731     -0.436045
  C      -3.155243     -0.930804      0.171816
  H      -2.057270      0.585974      1.211141
  H      -4.066169     -0.794038      0.753091
  H      -3.445706     -1.204073     -0.843441
  H      -2.611203     -1.766572      0.608617
  C      -0.901511      0.437144     -1.748936
  C       0.422288      0.263983     -2.273474
  H      -1.710688      0.837755     -2.351737
  C       1.490074      0.171733     -1.384003
  C       2.694364     -0.109926     -2.095634
  S       0.873492      0.034846     -3.894362
  C       2.508707     -0.203337     -3.441322
  H       1.610544      1.159497     -0.599970
  H       3.667635     -0.179225     -1.631986
  H       3.254319     -0.378546     -4.201926
  H      -0.678338     -3.241901     -0.253895
  H      -0.916685     -2.399430      2.323851
  H       1.486362     -1.488911      3.099808
  O       1.686178      2.318177      0.182169
  O       0.536723      1.005910      1.564097
  C       1.093410      2.112390      1.252738
  C       1.033564      3.199515      2.285998
  H       1.028934      4.179086      1.814779
  H       1.926246      3.140248      2.911276
  H       0.167111      3.090166      2.933174
  H       3.231625     -1.858458      1.100468
  H       1.864609     -2.911047     -1.000250
39
Coordinates from ORCA-job reaction4-IEIP_ts_guess_scan_9-7_orca E -1288.401371550965
  Ir      0.608671     -0.719475      0.441647
  C       0.110633     -2.829030      0.357699
  C      -0.029199     -2.360175      1.711300
  C       2.175805     -2.080581      1.073107
  C       1.453712     -2.654490     -0.034362
  C       1.258104     -1.929656      2.139864
  N      -1.061126      0.127745     -0.515531
  C      -2.336253      0.354669      0.182777
  C      -3.135287      1.528091     -0.365785
  H      -3.965521      1.733867      0.308188
  H      -3.573007      1.322745     -1.343657
  H      -2.535477      2.436043     -0.431888
  C      -3.155940     -0.930975      0.170696
  H      -2.056821      0.583567      1.212202
  H      -4.066199     -0.794822      0.753161
  H      -3.447551     -1.202020     -0.844821
  H      -2.611956     -1.768009      0.605163
  C      -0.902062      0.436789     -1.748707
  C       0.421849      0.263357     -2.273288
  H      -1.711275      0.837487     -2.351363
  C       1.489867      0.171804     -1.383779
  C       2.694160     -0.109719     -2.095596
  S       0.873090      0.034523     -3.894044
  C       2.508453     -0.203577     -3.441197
  H       1.610466      1.160305     -0.601618
  H       3.667424     -0.178972     -1.631920
  H       3.253833     -0.378872     -4.202007
  H      -0.675798     -3.242649     -0.256819
  H      -0.919323     -2.400460      2.320638
  H       1.482143     -1.489411      3.101315
  O       1.687015      2.318634      0.180951
  O       0.536731      1.006406      1.562171
  C       1.093780      2.112894      1.251234
  C       1.033705      3.199937      2.284504
  H       1.022514      4.179244      1.812763
  H       1.929849      3.145194      2.905229
  H       0.170858      3.087095      2.935817
  H       3.231230     -1.858037      1.105154
  H       1.868273     -2.910272     -0.998457
39
Coordinates from ORCA-job reaction4-IEIP_ts_guess_scan_9-7_orca E -1288.401371993369
  Ir      0.609499     -0.720450      0.441712
  C       0.112254     -2.829616      0.355514
  C      -0.030905     -2.361378      1.709146
  C       2.175685     -2.081188      1.076533
  C       1.456378     -2.654760     -0.032870
  C       1.255259     -1.930927      2.141182
  N      -1.060498      0.127410     -0.514678
  C      -2.335343      0.353945      0.184414
  C      -3.132954      1.529718     -0.361292
  H      -3.963076      1.734819      0.313025
  H      -3.570641      1.327550     -1.339832
  H      -2.531924      2.437042     -0.424920
  C      -3.156314     -0.930798      0.168938
  H      -2.055682      0.580175      1.214335
  H      -4.065966     -0.795620      0.752583
  H      -3.449006     -1.198456     -0.847163
  H      -2.612787     -1.769794      0.600213
  C      -0.902028      0.437287     -1.747722
  C       0.421809      0.263333     -2.272719
  H      -1.711274      0.838583     -2.349896
  C       1.490320      0.171330     -1.383650
  C       2.694092     -0.110729     -2.096155
  S       0.872244      0.034664     -3.893616
  C       2.507735     -0.204552     -3.441648
  H       1.611067      1.160305     -0.602920
  H       3.667499     -0.180716     -1.632884
  H       3.252451     -0.380268     -4.203008
  H      -0.672415     -3.243436     -0.261109
  H      -0.922750     -2.401384      2.316001
  H       1.476949     -1.491119      3.103374
  O       1.687295      2.318821      0.179405
  O       0.537409      1.006415      1.560701
  C       1.093610      2.113410      1.249382
  C       1.031410      3.201155      2.281716
  H       1.009522      4.179590      1.808406
  H       1.932349      3.154863      2.896143
  H       0.173764      3.082674      2.938775
  H       3.231064     -1.858897      1.111488
  H       1.873271     -2.909814     -0.996162
