39
Generated by autodE on: 2023-08-15. E = -1288.400091 Ha
Ir    0.61907  -0.73719   0.39713
C     0.17161  -2.85707   0.32135
C    -0.09541  -2.42414   1.67002
C     2.14241  -2.05253   1.21865
C     1.54817  -2.65791   0.06293
C     1.11610  -1.94644   2.20547
N    -1.07819   0.11022  -0.50875
C    -2.34483   0.29553   0.21379
C    -3.13462   1.51662  -0.23510
H    -3.96321   1.67242   0.45389
H    -3.57245   1.39858  -1.22723
H    -2.52594   2.42109  -0.22533
C    -3.17559  -0.97859   0.10587
H    -2.05777   0.44205   1.25621
H    -4.07422  -0.88950   0.71499
H    -3.48668  -1.15809  -0.92404
H    -2.62859  -1.85411   0.45192
C    -0.93410   0.48512  -1.72733
C     0.38131   0.30721  -2.25996
H    -1.74234   0.93243  -2.29629
C     1.39373   0.00242  -1.34245
C     2.62005  -0.21767  -2.05169
S     0.90341   0.34984  -3.87112
C     2.49860  -0.05805  -3.39795
H     1.61822   1.15251  -0.70306
H     3.56538  -0.42573  -1.57135
H     3.27388  -0.13868  -4.14471
H    -0.53678  -3.30958  -0.35699
H    -1.03835  -2.48512   2.19127
H     1.23577  -1.50150   3.18315
O     1.72812   2.32099   0.03367
O     0.60541   1.03983   1.46730
C     1.15426   2.13068   1.12734
C     1.12965   3.25027   2.12577
H     1.01828   4.20951   1.62569
H     2.08345   3.27066   2.65590
H     0.33804   3.11461   2.85721
H     3.18660  -1.82091   1.36058
H     2.05694  -2.91061  -0.85603
