39
Generated by autodE on: 2023-08-14. E = -1288.399379 Ha
Ir    0.62157  -0.71369   0.41211
C     0.13410  -2.83215   0.33701
C    -0.01853  -2.37058   1.69136
C     2.18771  -2.06695   1.06729
C     1.48035  -2.65091  -0.04288
C     1.25722  -1.92533   2.12767
N    -1.06359   0.13447  -0.51923
C    -2.33046   0.36073   0.19214
C    -3.13301   1.53769  -0.34328
H    -3.95829   1.73926   0.33794
H    -3.57768   1.33802  -1.31922
H    -2.53346   2.44592  -0.40812
C    -3.15123  -0.92454   0.18036
H    -2.04003   0.58299   1.21996
H    -4.05418  -0.79190   0.77484
H    -3.45521  -1.18775  -0.83357
H    -2.60219  -1.76498   0.60164
C    -0.91208   0.45291  -1.75122
C     0.40969   0.26318  -2.27280
H    -1.71824   0.86896  -2.34691
C     1.45809   0.11979  -1.35887
C     2.67158  -0.16286  -2.06357
S     0.88469   0.07045  -3.88672
C     2.50862  -0.21418  -3.41267
H     1.59603   1.13049  -0.64412
H     3.63550  -0.26090  -1.58561
H     3.26362  -0.38119  -4.16577
H    -0.64317  -3.25518  -0.28267
H    -0.91394  -2.41525   2.29240
H     1.46927  -1.48149   3.09018
O     1.66541   2.34845   0.15276
O     0.55140   1.00859   1.53850
C     1.08758   2.12709   1.22529
C     1.01599   3.20521   2.26888
H     1.01890   4.18920   1.80718
H     1.89936   3.13746   2.90630
H     0.14075   3.09143   2.90363
H     3.24237  -1.84325   1.11233
H     1.90486  -2.91003  -1.00178
