39
Generated by autodE on: 2023-08-14. E = -1288.400664 Ha
Ir    0.62482  -0.71641   0.43112
C     0.10869  -2.82396   0.34206
C     0.02839  -2.36342   1.70258
C     2.20612  -2.09686   0.97700
C     1.43342  -2.65355  -0.10694
C     1.33849  -1.94874   2.08269
N    -1.04701   0.13581  -0.51802
C    -2.31201   0.39900   0.18565
C    -3.09462   1.57290  -0.38422
H    -3.91665   1.80898   0.29005
H    -3.54229   1.35302  -1.35434
H    -2.47921   2.46822  -0.47486
C    -3.15014  -0.87427   0.21340
H    -2.01790   0.64629   1.20653
H    -4.05183  -0.70919   0.80149
H    -3.45653  -1.16702  -0.79168
H    -2.61303  -1.70696   0.66496
C    -0.89191   0.40163  -1.76115
C     0.43683   0.20763  -2.27363
H    -1.69833   0.78739  -2.37718
C     1.50472   0.21357  -1.37553
C     2.71886  -0.09530  -2.06105
S     0.89739  -0.15438  -3.86534
C     2.53932  -0.31339  -3.39158
H     1.53962   1.19806  -0.64014
H     3.69172  -0.09887  -1.59141
H     3.28995  -0.53632  -4.13456
H    -0.70757  -3.22325  -0.24252
H    -0.83707  -2.40096   2.34679
H     1.60690  -1.52106   3.03834
O     1.48070   2.39991   0.15605
O     0.55202   0.97393   1.59182
C     0.99734   2.12970   1.26137
C     0.93368   3.17829   2.33503
H     0.90572   4.17473   1.90244
H     1.83304   3.10810   2.94978
H     0.07820   3.02947   2.98982
H     3.26293  -1.87851   0.96477
H     1.80661  -2.90504  -1.08884
