39
Coordinates from ORCA-job reaction4-IEIP_ts_guess_scan_1-14_orca E -1288.391224983741
  Ir      0.561839     -0.741908      0.520744
  C       0.008642     -2.816680      0.380474
  C       0.059847     -2.376580      1.753412
  C       2.168094     -2.155636      0.852739
  C       1.287183     -2.649920     -0.182184
  C       1.423183     -2.025225      2.037614
  N      -1.040969      0.143227     -0.500168
  C      -2.328457      0.452205      0.146275
  C      -3.123469      1.535941     -0.565399
  H      -3.960404      1.830242      0.066468
  H      -3.552704      1.199589     -1.510411
  H      -2.525538      2.429087     -0.748789
  C      -3.144064     -0.824711      0.308923
  H      -2.060572      0.822037      1.137622
  H      -4.072335     -0.602089      0.833071
  H      -3.403651     -1.254801     -0.659358
  H      -2.616775     -1.577382      0.893283
  C      -0.833040      0.351025     -1.741878
  C       0.512686      0.168824     -2.221679
  H      -1.624944      0.686679     -2.406064
  C       1.622421      0.491369     -1.452368
  C       2.816180      0.134839     -2.138936
  S       0.921126     -0.482821     -3.752113
  C       2.590301     -0.388194     -3.376079
  H       1.550096      1.394182     -0.587002
  H       3.809288      0.312880     -1.752350
  H       3.321313     -0.706464     -4.104198
  H      -0.869589     -3.172904     -0.138524
  H      -0.746809     -2.414345      2.470875
  H       1.790056     -1.643694      2.979658
  O       1.405482      2.384763      0.242357
  O       0.542232      0.928315      1.684545
  C       0.963752      2.093834      1.357115
  C       0.930733      3.122402      2.449404
  H       0.870846      4.124702      2.033836
  H       1.857031      3.057233      3.023838
  H       0.106941      2.951661      3.138542
  H       3.216170     -1.924712      0.732189
  H       1.567247     -2.857782     -1.204744
39
Coordinates from ORCA-job reaction4-IEIP_ts_guess_scan_1-14_orca E -1288.391383012497
  Ir      0.565204     -0.742795      0.521008
  C       0.008059     -2.818038      0.385209
  C       0.057887     -2.376520      1.757476
  C       2.167658     -2.159625      0.859408
  C       1.287559     -2.654458     -0.175759
  C       1.420953     -2.025890      2.042682
  N      -1.041292      0.143400     -0.502177
  C      -2.327993      0.450863      0.145161
  C      -3.123963      1.533102     -0.567610
  H      -3.961724      1.826739      0.063454
  H      -3.551895      1.195497     -1.512802
  H      -2.527070      2.426906     -0.751224
  C      -3.141283     -0.827369      0.308444
  H      -2.059800      0.821202      1.136225
  H      -4.069448     -0.606268      0.833396
  H      -3.401003     -1.257880     -0.659613
  H      -2.612046     -1.579101      0.892316
  C      -0.835625      0.354918     -1.746912
  C       0.510784      0.178525     -2.233067
  H      -1.629479      0.693846     -2.407177
  C       1.619246      0.488085     -1.457100
  C       2.813462      0.128909     -2.142043
  S       0.920112     -0.463444     -3.767057
  C       2.588832     -0.382536     -3.384249
  H       1.549408      1.398306     -0.586050
  H       3.806263      0.298474     -1.750754
  H       3.320496     -0.698859     -4.112477
  H      -0.869867     -3.174029     -0.134471
  H      -0.749567     -2.412813      2.474025
  H       1.786979     -1.643391      2.984650
  O       1.409414      2.390187      0.242548
  O       0.542538      0.930444      1.686576
  C       0.966890      2.096350      1.359417
  C       0.933098      3.124307      2.452011
  H       0.873182      4.126925      2.037062
  H       1.859137      3.058922      3.026785
  H       0.108966      2.952830      3.140466
  H       3.216405     -1.931292      0.740343
  H       1.568893     -2.865236     -1.197380
39
Coordinates from ORCA-job reaction4-IEIP_ts_guess_scan_1-14_orca E -1288.391448820376
  Ir      0.564904     -0.743612      0.522688
  C       0.003026     -2.818373      0.393655
  C       0.048952     -2.373731      1.764518
  C       2.162068     -2.162814      0.872362
  C       1.284675     -2.659403     -0.163792
  C       1.411052     -2.023658      2.052494
  N      -1.037783      0.140212     -0.502610
  C      -2.324558      0.446801      0.144728
  C      -3.121856      1.528801     -0.567017
  H      -3.959817      1.821387      0.064303
  H      -3.549647      1.191306     -1.512278
  H      -2.525830      2.423256     -0.750256
  C      -3.137172     -0.831878      0.308211
  H      -2.056123      0.816731      1.135905
  H      -4.065106     -0.611530      0.833967
  H      -3.397328     -1.262161     -0.659811
  H      -2.606914     -1.583375      0.891329
  C      -0.833369      0.355268     -1.748401
  C       0.512154      0.182381     -2.241546
  H      -1.628939      0.697019     -2.404772
  C       1.621078      0.476958     -1.460664
  C       2.814663      0.128347     -2.152443
  S       0.919104     -0.438839     -3.784039
  C       2.588591     -0.362944     -3.402518
  H       1.553608      1.394615     -0.584848
  H       3.807929      0.292869     -1.760133
  H       3.319384     -0.666195     -4.137121
  H      -0.873820     -3.174239     -0.127897
  H      -0.760728     -2.406921      2.478609
  H       1.774496     -1.638630      2.994435
  O       1.418749      2.388654      0.242013
  O       0.538062      0.931149      1.684973
  C       0.969349      2.094530      1.358463
  C       0.935944      3.123440      2.449429
  H       0.881322      4.126015      2.033598
  H       1.859768      3.054885      3.027409
  H       0.108661      2.955286      3.134804
  H       3.211853     -1.937710      0.756595
  H       1.568968     -2.874707     -1.183601
39
Coordinates from ORCA-job reaction4-IEIP_ts_guess_scan_1-14_orca E -1288.391475794268
  Ir      0.566248     -0.745881      0.525214
  C       0.001144     -2.820386      0.404509
  C       0.043797     -2.371066      1.773575
  C       2.159920     -2.166604      0.885987
  C       1.284650     -2.666045     -0.150406
  C       1.405273     -2.021206      2.063274
  N      -1.036023      0.136209     -0.504358
  C      -2.324025      0.440262      0.142712
  C      -3.121102      1.525276     -0.564700
  H      -3.959513      1.814978      0.067339
  H      -3.548355      1.191851     -1.511631
  H      -2.525149      2.420652     -0.743653
  C      -3.138093     -0.838355      0.300344
  H      -2.056885      0.806154      1.135743
  H      -4.066625     -0.619135      0.825532
  H      -3.397206     -1.264809     -0.669655
  H      -2.609473     -1.592379      0.881408
  C      -0.832987      0.357087     -1.749474
  C       0.510603      0.189430     -2.248330
  H      -1.630583      0.701074     -2.402029
  C       1.620140      0.468682     -1.463033
  C       2.812943      0.126773     -2.158916
  S       0.916143     -0.399336     -3.803163
  C       2.585454     -0.343423     -3.416968
  H       1.556553      1.390463     -0.584430
  H       3.806560      0.278803     -1.762513
  H       3.315347     -0.639381     -4.155408
  H      -0.874771     -3.176953     -0.118128
  H      -0.767733     -2.400560      2.485683
  H       1.766664     -1.632737      3.004611
  O       1.427985      2.386741      0.240738
  O       0.537377      0.933536      1.683173
  C       0.973993      2.093834      1.356596
  C       0.942934      3.124983      2.445104
  H       0.892422      4.127053      2.027598
  H       1.865779      3.054160      3.024404
  H       0.114066      2.960651      3.129495
  H       3.210611     -1.944484      0.772844
  H       1.571287     -2.886723     -1.168347
39
Coordinates from ORCA-job reaction4-IEIP_ts_guess_scan_1-14_orca E -1288.391492757874
  Ir      0.566688     -0.749986      0.530524
  C      -0.002455     -2.823593      0.419079
  C       0.035469     -2.368133      1.785940
  C       2.156015     -2.172733      0.905525
  C       1.283795     -2.675333     -0.131835
  C       1.396333     -2.019306      2.078779
  N      -1.033489      0.131152     -0.505606
  C      -2.323338      0.431997      0.140634
  C      -3.118836      1.522303     -0.560479
  H      -3.957672      1.808306      0.072648
  H      -3.545565      1.195531     -1.509959
  H      -2.522177      2.418506     -0.732850
  C      -3.139962     -0.846290      0.288428
  H      -2.058496      0.791462      1.136629
  H      -4.069706     -0.628570      0.812068
  H      -3.396875     -1.266666     -0.684811
  H      -2.614530     -1.604608      0.866650
  C      -0.831676      0.357542     -1.749556
  C       0.508946      0.194199     -2.253765
  H      -1.631745      0.701838     -2.398977
  C       1.619986      0.454596     -1.464100
  C       2.811573      0.128436     -2.168613
  S       0.911622     -0.366196     -3.819178
  C       2.581796     -0.309014     -3.438267
  H       1.561087      1.379522     -0.584043
  H       3.805839      0.271168     -1.770517
  H       3.310333     -0.585971     -4.185354
  H      -0.876951     -3.180752     -0.105538
  H      -0.778940     -2.392337      2.494932
  H       1.754797     -1.626628      3.019513
  O       1.440138      2.379354      0.237971
  O       0.537481      0.935511      1.681384
  C       0.980866      2.091185      1.353204
  C       0.952899      3.127473      2.436988
  H       0.907389      4.128036      2.015429
  H       1.874639      3.055004      3.017866
  H       0.122324      2.969455      3.120872
  H       3.207928     -1.954540      0.796371
  H       1.573841     -2.902728     -1.147243
39
Coordinates from ORCA-job reaction4-IEIP_ts_guess_scan_1-14_orca E -1288.391505418829
  Ir      0.565039     -0.749872      0.531817
  C      -0.002910     -2.823254      0.420385
  C       0.032405     -2.366737      1.787012
  C       2.154622     -2.171625      0.910307
  C       1.284373     -2.675030     -0.128351
  C       1.392756     -2.017465      2.082054
  N      -1.032733      0.130012     -0.505013
  C      -2.322897      0.428927      0.141670
  C      -3.117716      1.522271     -0.555643
  H      -3.956123      1.806571      0.078827
  H      -3.545099      1.199169     -1.506080
  H      -2.520524      2.418661     -0.725098
  C      -3.139857     -0.849719      0.284095
  H      -2.058686      0.784735      1.139144
  H      -4.070110     -0.633601      0.807489
  H      -3.395819     -1.266685     -0.690859
  H      -2.615271     -1.610342      0.860229
  C      -0.831230      0.357240     -1.748673
  C       0.508546      0.195228     -2.253673
  H      -1.632093      0.700566     -2.397802
  C       1.620777      0.450660     -1.463959
  C       2.811689      0.128159     -2.170728
  S       0.910467     -0.353314     -3.823550
  C       2.580374     -0.304538     -3.441920
  H       1.564067      1.374116     -0.583823
  H       3.806368      0.266722     -1.772253
  H       3.308047     -0.579931     -4.190428
  H      -0.876248     -3.180992     -0.105752
  H      -0.783414     -2.390236      2.494417
  H       1.749474     -1.623887      3.023077
  O       1.445160      2.375186      0.236982
  O       0.536244      0.936395      1.679957
  C       0.982714      2.090420      1.351353
  C       0.954614      3.129086      2.433361
  H       0.911180      4.128870      2.009792
  H       1.875377      3.056378      3.015746
  H       0.122861      2.973740      3.116456
  H       3.206733     -1.953422      0.803201
  H       1.576213     -2.903270     -1.143026
39
Coordinates from ORCA-job reaction4-IEIP_ts_guess_scan_1-14_orca E -1288.391514914169
  Ir      0.564543     -0.750032      0.533355
  C      -0.001109     -2.823745      0.420301
  C       0.030831     -2.366777      1.787017
  C       2.154961     -2.170486      0.915210
  C       1.287309     -2.674445     -0.125448
  C       1.390477     -2.016759      2.085196
  N      -1.032615      0.129321     -0.504309
  C      -2.322819      0.426733      0.143058
  C      -3.115752      1.523972     -0.550395
  H      -3.953647      1.807326      0.085211
  H      -3.543730      1.205090     -1.501970
  H      -2.516994      2.419882     -0.716642
  C      -3.141087     -0.851734      0.279265
  H      -2.059109      0.778247      1.142159
  H      -4.071880     -0.636898      0.802285
  H      -3.396120     -1.264634     -0.697657
  H      -2.618041     -1.615248      0.852956
  C      -0.832064      0.356390     -1.748273
  C       0.507060      0.195939     -2.253899
  H      -1.633900      0.698126     -2.397074
  C       1.620145      0.447569     -1.464252
  C       2.810498      0.126322     -2.171863
  S       0.908552     -0.346257     -3.826392
  C       2.578107     -0.301744     -3.444683
  H       1.565812      1.369174     -0.583477
  H       3.805454      0.261909     -1.773115
  H       3.305278     -0.575327     -4.194353
  H      -0.872787     -3.182409     -0.107936
  H      -0.786688     -2.390434      2.492476
  H       1.744882     -1.622790      3.026929
  O       1.448742      2.371700      0.235814
  O       0.536018      0.937223      1.679735
  C       0.984086      2.090400      1.349804
  C       0.955281      3.131158      2.430020
  H       0.911975      4.130055      2.004352
  H       1.875740      3.059606      3.013013
  H       0.123222      2.977207      3.113033
  H       3.207207     -1.951681      0.810700
  H       1.581532     -2.902761     -1.139410
39
Coordinates from ORCA-job reaction4-IEIP_ts_guess_scan_1-14_orca E -1288.391526561694
  Ir      0.564458     -0.750272      0.535847
  C       0.001361     -2.824628      0.420541
  C       0.027074     -2.366819      1.787274
  C       2.154930     -2.169428      0.924856
  C       1.292009     -2.674211     -0.119413
  C       1.385350     -2.015987      2.091392
  N      -1.031849      0.128339     -0.502859
  C      -2.322297      0.422976      0.145389
  C      -3.112322      1.526642     -0.541406
  H      -3.949684      1.808131      0.095766
  H      -3.540790      1.214823     -1.495065
  H      -2.511045      2.421863     -0.701942
  C      -3.142471     -0.855343      0.270953
  H      -2.059537      0.766984      1.147288
  H      -4.074004     -0.643224      0.793833
  H      -3.396223     -1.260976     -0.709339
  H      -2.621377     -1.623774      0.839862
  C      -0.833185      0.355224     -1.747473
  C       0.504827      0.197097     -2.255059
  H      -1.636878      0.694602     -2.395222
  C       1.619296      0.441922     -1.465396
  C       2.808521      0.123890     -2.175524
  S       0.904764     -0.336021     -3.831495
  C       2.574042     -0.296139     -3.450985
  H       1.569033      1.361573     -0.582446
  H       3.804079      0.255804     -1.777120
  H       3.300249     -0.565629     -4.203084
  H      -0.867395     -3.184646     -0.111561
  H      -0.793609     -2.390555      2.489068
  H       1.735413     -1.621416      3.034497
  O       1.455689      2.366889      0.233945
  O       0.536187      0.938960      1.679654
  C       0.987146      2.090706      1.347431
  C       0.956406      3.134734      2.424415
  H       0.912817      4.132181      1.995340
  H       1.876344      3.065626      3.008484
  H       0.123751      2.982434      3.107019
  H       3.207553     -1.950193      0.825236
  H       1.590737     -2.902951     -1.131959
39
Coordinates from ORCA-job reaction4-IEIP_ts_guess_scan_1-14_orca E -1288.391538411122
  Ir      0.565235     -0.750308      0.538220
  C       0.004946     -2.825668      0.420245
  C       0.022730     -2.367055      1.786944
  C       2.155247     -2.167982      0.936482
  C       1.298386     -2.673832     -0.112280
  C       1.379035     -2.015093      2.098608
  N      -1.030911      0.127162     -0.500959
  C      -2.321638      0.418919      0.148186
  C      -3.108103      1.530063     -0.530839
  H      -3.945047      1.809511      0.107786
  H      -3.536767      1.226415     -1.487006
  H      -2.503696      2.424330     -0.684588
  C      -3.144322     -0.858947      0.261535
  H      -2.059860      0.754026      1.153292
  H      -4.076277     -0.650063      0.785014
  H      -3.397383     -1.255617     -0.722604
  H      -2.625070     -1.633319      0.824041
  C      -0.834611      0.353733     -1.746334
  C       0.502206      0.197804     -2.256672
  H      -1.640448      0.690974     -2.392530
  C       1.618203      0.436083     -1.467450
  C       2.806027      0.120766     -2.180494
  S       0.899755     -0.326636     -3.837021
  C       2.569043     -0.290655     -3.458571
  H       1.572549      1.353801     -0.580973
  H       3.802336      0.249104     -1.782849
  H       3.294093     -0.556021     -4.213259
  H      -0.860140     -3.187370     -0.116644
  H      -0.801850     -2.391287      2.484153
  H       1.723417     -1.619858      3.043533
  O       1.463908      2.362363      0.232046
  O       0.536701      0.940902      1.679379
  C       0.990594      2.091158      1.344794
  C       0.957055      3.138490      2.418247
  H       0.912514      4.134438      1.985722
  H       1.876521      3.072663      3.003407
  H       0.123812      2.987170      3.100281
  H       3.208303     -1.948202      0.842971
  H       1.602876     -2.902770     -1.123074
39
Coordinates from ORCA-job reaction4-IEIP_ts_guess_scan_1-14_orca E -1288.391550271032
  Ir      0.566941     -0.750445      0.540467
  C       0.009620     -2.827100      0.419533
  C       0.016907     -2.367418      1.786022
  C       2.155609     -2.166441      0.951441
  C       1.306791     -2.673856     -0.103080
  C       1.370385     -2.013982      2.107603
  N      -1.029774      0.125491     -0.498483
  C      -2.320899      0.413854      0.151632
  C      -3.102936      1.534277     -0.517423
  H      -3.939691      1.810840      0.122681
  H      -3.531332      1.240956     -1.476884
  H      -2.494743      2.427437     -0.662242
  C      -3.146764     -0.863272      0.249729
  H      -2.060293      0.737552      1.160704
  H      -4.078604     -0.658812      0.775179
  H      -3.400115     -1.247849     -0.739140
  H      -2.629041     -1.645413      0.802845
  C      -0.836261      0.352100     -1.744536
  C       0.499145      0.198086     -2.258550
  H      -1.644495      0.687701     -2.388599
  C       1.616995      0.429787     -1.470359
  C       2.802988      0.117910     -2.187561
  S       0.892984     -0.317484     -3.843031
  C       2.562719     -0.284866     -3.467941
  H       1.576688      1.345204     -0.578958
  H       3.800302      0.243126     -1.791476
  H       3.286212     -0.545771     -4.225673
  H      -0.850734     -3.190853     -0.123509
  H      -0.812715     -2.392384      2.477206
  H       1.707084     -1.617735      3.054888
  O       1.474584      2.357814      0.229866
  O       0.538025      0.943425      1.678525
  C       0.995246      2.091832      1.341517
  C       0.957851      3.143097      2.410684
  H       0.911535      4.137299      1.974250
  H       1.876931      3.081881      2.996924
  H       0.124086      2.992295      3.092123
  H       3.209222     -1.946209      0.865912
  H       1.618917     -2.902884     -1.111545
39
Coordinates from ORCA-job reaction4-IEIP_ts_guess_scan_1-14_orca E -1288.391557921953
  Ir      0.568843     -0.750648      0.541616
  C       0.014331     -2.828403      0.418225
  C       0.011492     -2.367806      1.784402
  C       2.156052     -2.164757      0.964961
  C       1.315080     -2.673983     -0.094907
  C       1.361989     -2.012578      2.115302
  N      -1.029077      0.123611     -0.496456
  C      -2.320415      0.409478      0.154583
  C      -3.098675      1.537744     -0.505740
  H      -3.935522      1.811483      0.135423
  H      -3.526480      1.253362     -1.468118
  H      -2.487463      2.430084     -0.642561
  C      -3.149172     -0.866749      0.239952
  H      -2.060567      0.723346      1.166906
  H      -4.080035     -0.666315      0.768665
  H      -3.404361     -1.240046     -0.752775
  H      -2.631958     -1.655962      0.783444
  C      -0.837729      0.350849     -1.742761
  C       0.496532      0.197809     -2.260092
  H      -1.647612      0.686365     -2.384837
  C       1.615926      0.425358     -1.473231
  C       2.800309      0.115751     -2.194043
  S       0.886671     -0.311075     -3.847635
  C       2.557211     -0.280646     -3.475856
  H       1.579885      1.338545     -0.577283
  H       3.798477      0.238583     -1.799368
  H       3.279258     -0.538543     -4.235979
  H      -0.841576     -3.194018     -0.130541
  H      -0.822814     -2.393716      2.469892
  H       1.691141     -1.615087      3.064742
  O       1.484430      2.354469      0.228190
  O       0.539316      0.945461      1.676827
  C       0.999453      2.092140      1.338560
  C       0.958745      3.146690      2.404229
  H       0.910666      4.139490      1.964749
  H       1.877663      3.089658      2.991138
  H       0.124718      2.996042      3.085344
  H       3.210127     -1.944094      0.886949
  H       1.634509     -2.902703     -1.101176
39
Coordinates from ORCA-job reaction4-IEIP_ts_guess_scan_1-14_orca E -1288.391560512138
  Ir      0.570009     -0.750980      0.541826
  C       0.017756     -2.829318      0.416802
  C       0.007407     -2.368160      1.782726
  C       2.156240     -2.163381      0.974332
  C       1.321168     -2.674199     -0.089379
  C       1.355550     -2.011255      2.120298
  N      -1.029100      0.122072     -0.495433
  C      -2.320493      0.406492      0.156295
  C      -3.096682      1.539389     -0.498489
  H      -3.933914      1.810684      0.143196
  H      -3.523736      1.260660     -1.462835
  H      -2.484141      2.431624     -0.629878
  C      -3.150930     -0.869165      0.233988
  H      -2.060994      0.714386      1.170522
  H      -4.080431     -0.671602      0.766148
  H      -3.408609     -1.234653     -0.761004
  H      -2.633281     -1.663139      0.770101
  C      -0.838724      0.350533     -1.741527
  C       0.494864      0.197522     -2.260889
  H      -1.649152      0.687169     -2.382383
  C       1.615228      0.423219     -1.475041
  C       2.798575      0.115124     -2.198370
  S       0.882342     -0.307693     -3.850030
  C       2.553677     -0.278494     -3.480575
  H       1.581589      1.334754     -0.576420
  H       3.797263      0.236812     -1.804650
  H       3.274658     -0.534982     -4.242164
  H      -0.834964     -3.196151     -0.136094
  H      -0.830250     -2.394871      2.464086
  H       1.679065     -1.612580      3.071204
  O       1.491616      2.352571      0.227292
  O       0.540216      0.946876      1.674950
  C       1.002735      2.092182      1.336625
  C       0.960560      3.148857      2.400219
  H       0.911393      4.140783      1.958883
  H       1.879640      3.094374      2.987122
  H       0.126673      2.998535      3.081577
  H       3.210623     -1.942442      0.901798
  H       1.645926     -2.902361     -1.094084
39
Coordinates from ORCA-job reaction4-IEIP_ts_guess_scan_1-14_orca E -1288.391561072995
  Ir      0.570147     -0.751122      0.541667
  C       0.019858     -2.829694      0.415425
  C       0.005005     -2.368456      1.781289
  C       2.156268     -2.162021      0.979312
  C       1.324813     -2.673913     -0.086694
  C       1.351678     -2.010154      2.122697
  N      -1.029570      0.121228     -0.495285
  C      -2.320867      0.405029      0.156942
  C      -3.096569      1.539569     -0.495511
  H      -3.934160      1.809244      0.146398
  H      -3.523130      1.263219     -1.460753
  H      -2.484018      2.432160     -0.624370
  C      -3.151806     -0.870477      0.231733
  H      -2.061364      0.710742      1.171827
  H      -4.080216     -0.674360      0.766318
  H      -3.411438     -1.232282     -0.764091
  H      -2.633458     -1.666657      0.763891
  C      -0.839395      0.350758     -1.741092
  C       0.493917      0.197568     -2.261263
  H      -1.649730      0.688586     -2.381477
  C       1.614701      0.422534     -1.475860
  C       2.797604      0.114675     -2.200098
  S       0.880239     -0.305887     -3.851040
  C       2.552002     -0.277706     -3.482471
  H       1.582105      1.333144     -0.576363
  H       3.796459      0.235453     -1.806515
  H       3.272412     -0.533885     -4.244692
  H      -0.830964     -3.197210     -0.139939
  H      -0.834580     -2.395839      2.460246
  H       1.671848     -1.610693      3.074422
  O       1.495755      2.351540      0.227013
  O       0.540277      0.947643      1.673496
  C       1.004760      2.092037      1.335707
  C       0.962743      3.149622      2.398548
  H       0.913263      4.141152      1.956366
  H       1.882133      3.095946      2.985043
  H       0.129191      2.999840      3.080441
  H       3.210786     -1.940750      0.910025
  H       1.652671     -2.901394     -1.090551
39
Coordinates from ORCA-job reaction4-IEIP_ts_guess_scan_1-14_orca E -1288.391561305978
  Ir      0.569843     -0.751200      0.541637
  C       0.021569     -2.830017      0.414101
  C       0.003125     -2.368896      1.780008
  C       2.156223     -2.160658      0.983076
  C       1.327686     -2.673388     -0.084804
  C       1.348632     -2.009315      2.124462
  N      -1.030130      0.120784     -0.495366
  C      -2.321327      0.404095      0.157257
  C      -3.097022      1.539368     -0.493898
  H      -3.934929      1.807761      0.148155
  H      -3.523205      1.264381     -1.459689
  H      -2.484793      2.432402     -0.621168
  C      -3.152364     -0.871427      0.230495
  H      -2.061791      0.708814      1.172430
  H      -4.080027     -0.676274      0.766728
  H      -3.413315     -1.231046     -0.765769
  H      -2.633470     -1.668910      0.760158
  C      -0.840036      0.351118     -1.740973
  C       0.493095      0.197812     -2.261544
  H      -1.650228      0.689735     -2.381142
  C       1.614156      0.421957     -1.476306
  C       2.796791      0.114391     -2.201083
  S       0.878817     -0.304519     -3.851724
  C       2.550762     -0.277287     -3.483579
  H       1.582300      1.332054     -0.576589
  H       3.795729      0.234578     -1.807532
  H       3.270746     -0.533221     -4.246278
  H      -0.827680     -3.198125     -0.143281
  H      -0.837979     -2.396938      2.457053
  H       1.666189     -1.609323      3.076851
  O       1.498871      2.350628      0.226870
  O       0.540046      0.948313      1.672474
  C       1.006462      2.091962      1.335144
  C       0.965191      3.150020      2.397625
  H       0.915449      4.141279      1.954862
  H       1.885039      3.096670      2.983430
  H       0.132155      3.000760      3.080258
  H       3.210815     -1.938974      0.916420
  H       1.657973     -2.900173     -1.088028
