! Opt PBEh-3c
%geom Constraints
{ B 0 20 2.1285714285714286 C }
{ B 24 30 1.342857142857143 C }
    end
end
%output 
xyzfile=True 
end 
%scf 
maxiter 250 
end
%output
Print[P_Hirshfeld] = 1
end
% maxcore
4000
*xyz 1 1
Ir   0.60786622  -0.73135801   0.43893714 
C    0.13358122  -2.84293329   0.35236944 
C   -0.08785898  -2.38149590   1.69853768 
C    2.14654630  -2.07017083   1.18471589 
C    1.49951658  -2.65991444   0.04432259 
C    1.15995793  -1.93025305   2.19687920 
N   -1.06813342   0.11258033  -0.50865855 
C   -2.34574895   0.30857559   0.19425340 
C   -3.13835254   1.51146249  -0.29759441 
H   -3.97224391   1.68446346   0.38086035 
H   -3.56943985   1.35998538  -1.28811296 
H   -2.53448541   2.41903417  -0.31230572 
C   -3.16911639  -0.97204562   0.11256317 
H   -2.07266195   0.48636449   1.23547750 
H   -4.07951840  -0.86702024   0.70134077 
H   -3.46026840  -1.18665479  -0.91649554 
H   -2.62666392  -1.83357963   0.49854838 
C   -0.91462288   0.45969114  -1.73356850 
C    0.40273853   0.29772816  -2.27061911 
H   -1.72761285   0.87935377  -2.31764385 
C    1.45547981   0.09200602  -1.38279962 
C    2.66138450  -0.14815630  -2.10594951 
S    0.87064321   0.23001970  -3.90223005 
C    2.49099205  -0.09643311  -3.45705587 
H    1.63642165   1.14377048  -0.60156581 
H    3.62672403  -0.29387406  -1.64321954 
H    3.24309012  -0.21394081  -4.22239951 
H   -0.60716092  -3.27526857  -0.30435908 
H   -1.01203176  -2.42868134   2.25407949 
H    1.31998248  -1.48333742   3.16801135 
O    1.76274752   2.27861321   0.13192616 
O    0.55977838   1.02974111   1.52504865 
C    1.14764651   2.10885012   1.20444908 
C    1.11185629   3.23028999   2.19941739 
H    0.99075148   4.18564864   1.69360774 
H    2.06649498   3.26520844   2.72704506 
H    0.32158296   3.09172868   2.93159098 
H    3.19709170  -1.84500669   1.28392357 
H    1.97241621  -2.91580129  -0.89258728 
*
