! Opt PBEh-3c
%geom Constraints
{ B 0 20 2.3 C }
{ B 24 30 1.3714285714285714 C }
    end
end
%output 
xyzfile=True 
end 
%scf 
maxiter 250 
end
%output
Print[P_Hirshfeld] = 1
end
% maxcore
4000
*xyz 1 1
Ir   0.60311507  -0.72526169   0.46582181 
C    0.05954431  -2.81732537   0.37840355 
C    0.03882338  -2.35095529   1.73995830 
C    2.18978770  -2.12507842   0.93269971 
C    1.36553587  -2.66159530  -0.12521278 
C    1.37579985  -1.96569312   2.07255077 
N   -1.04318827   0.13678728  -0.51742411 
C   -2.31870076   0.41108359   0.16472716 
C   -3.10995880   1.55216613  -0.45651360 
H   -3.93907912   1.80585460   0.20260399 
H   -3.54942412   1.28927987  -1.41975860 
H   -2.50439590   2.45051052  -0.57857448 
C   -3.14410213  -0.86837514   0.23828444 
H   -2.03633715   0.70186694   1.17768377 
H   -4.05837462  -0.68390266   0.80059582 
H   -3.42868185  -1.21318262  -0.75665662 
H   -2.60903497  -1.67180685   0.74201183 
C   -0.87005596   0.38911258  -1.76038787 
C    0.46442283   0.20863492  -2.26834608 
H   -1.67411916   0.75768101  -2.39045468 
C    1.55186925   0.31367884  -1.40753018 
C    2.75722303  -0.01222722  -2.09302841 
S    0.90254476  -0.24154057  -3.84957801 
C    2.55656540  -0.32348857  -3.40306379 
H    1.54960721   1.26300790  -0.60752576 
H    3.73887749   0.03847665  -1.64490894 
H    3.29822298  -0.57582914  -4.14574609 
H   -0.78701648  -3.19845495  -0.17441499 
H   -0.80107451  -2.37750629   2.41797906 
H    1.69006099  -1.54796718   3.01847573 
O    1.47642688   2.38832192   0.19777983 
O    0.53914918   0.95998416   1.62739507 
C    0.99291912   2.11406871   1.30328683 
C    0.93926122   3.15655726   2.38219116 
H    0.92412976   4.15579145   1.95554095 
H    1.83601267   3.07190026   2.99908909 
H    0.08065277   3.01389672   3.03431718 
H    3.24569091  -1.90933699   0.87128727 
H    1.69667109  -2.90994393  -1.12281829 
*
