39
Coordinates from ORCA-job reaction4-IEIP_ts_guess_scan_0-8_orca E -1288.393407858297
  Ir      0.567239     -0.738705      0.494444
  C       0.011507     -2.815205      0.353975
  C       0.097310     -2.377744      1.727179
  C       2.179979     -2.154148      0.775330
  C       1.274620     -2.647150     -0.238876
  C       1.467680     -2.029140      1.979674
  N      -1.041385      0.166638     -0.507557
  C      -2.318650      0.502783      0.142037
  C      -3.132926      1.539187     -0.615243
  H      -3.969009      1.852731      0.008277
  H      -3.563676      1.149825     -1.539140
  H      -2.549846      2.431216     -0.846431
  C      -3.119638     -0.769915      0.387332
  H      -2.034415      0.926375      1.106947
  H      -4.039252     -0.525789      0.916915
  H      -3.394797     -1.252322     -0.551567
  H      -2.575707     -1.486416      1.001340
  C      -0.824738      0.369976     -1.749252
  C       0.528792      0.155752     -2.216084
  H      -1.601982      0.724422     -2.420614
  C       1.638054      0.562299     -1.485643
  C       2.836440      0.155308     -2.138372
  S       0.941882     -0.642760     -3.672477
  C       2.613852     -0.493212     -3.313050
  H       1.542504      1.422327     -0.664073
  H       3.826605      0.384707     -1.772095
  H       3.345896     -0.876306     -4.007957
  H      -0.880432     -3.168967     -0.142864
  H      -0.690870     -2.417007      2.464930
  H       1.858362     -1.650456      2.913216
  O       1.313267      2.425457      0.264035
  O       0.539290      0.897139      1.693307
  C       0.914731      2.092472      1.378202
  C       0.864935      3.080515      2.509075
  H       0.820858      4.097371      2.128629
  H       1.774962      2.986085      3.104861
  H       0.023888      2.893188      3.173347
  H       3.223700     -1.918993      0.627419
  H       1.530341     -2.852348     -1.268437
39
Coordinates from ORCA-job reaction4-IEIP_ts_guess_scan_0-8_orca E -1288.393394225504
  Ir      0.566745     -0.741383      0.496877
  C       0.007040     -2.817119      0.360932
  C       0.094119     -2.377115      1.733237
  C       2.176921     -2.159255      0.780121
  C       1.270298     -2.652560     -0.232795
  C       1.465218     -2.030535      1.984490
  N      -1.039935      0.164616     -0.506762
  C      -2.318085      0.499525      0.141821
  C      -3.131110      1.537783     -0.614290
  H      -3.967899      1.850266      0.008824
  H      -3.560804      1.150537     -1.539560
  H      -2.547460      2.430108     -0.842880
  C      -3.119743     -0.773500      0.383210
  H      -2.035194      0.920947      1.108084
  H      -4.040083     -0.530342      0.911990
  H      -3.393625     -1.253802     -0.557137
  H      -2.576845     -1.491450      0.996425
  C      -0.822085      0.370979     -1.747966
  C       0.531358      0.158239     -2.216338
  H      -1.599133      0.727816     -2.418307
  C       1.641629      0.556676     -1.482938
  C       2.838955      0.155672     -2.141452
  S       0.942401     -0.625423     -3.681514
  C       2.614796     -0.479727     -3.322992
  H       1.547119      1.410696     -0.648132
  H       3.829726      0.380110     -1.773715
  H       3.345829     -0.855729     -4.022847
  H      -0.885735     -3.170203     -0.134888
  H      -0.693858     -2.413480      2.471346
  H       1.856953     -1.650771      2.917151
  O       1.300532      2.430870      0.256657
  O       0.543148      0.899004      1.692358
  C       0.912352      2.095372      1.374014
  C       0.867634      3.083433      2.504820
  H       0.815956      4.100013      2.124569
  H       1.783005      2.993096      3.093006
  H       0.032954      2.892459      3.175983
  H       3.221029     -1.926372      0.631387
  H       1.525249     -2.860260     -1.262048
39
Coordinates from ORCA-job reaction4-IEIP_ts_guess_scan_0-8_orca E -1288.393238185418
  Ir      0.562618     -0.736533      0.497634
  C       0.007285     -2.813742      0.366152
  C       0.091524     -2.370638      1.737590
  C       2.175298     -2.150497      0.786697
  C       1.271143     -2.647856     -0.226388
  C       1.461513     -2.020492      1.989809
  N      -1.045118      0.160997     -0.510922
  C      -2.324865      0.494148      0.135742
  C      -3.140113      1.528126     -0.623911
  H      -3.977920      1.840576     -0.002123
  H      -3.568523      1.137066     -1.548147
  H      -2.558461      2.421071     -0.855135
  C      -3.123579     -0.780145      0.380215
  H      -2.044169      0.919165      1.101100
  H      -4.045146     -0.537844      0.907287
  H      -3.395146     -1.264010     -0.558965
  H      -2.579440     -1.494805      0.996124
  C      -0.828323      0.362109     -1.753593
  C       0.524990      0.152157     -2.223637
  H      -1.607352      0.713863     -2.424365
  C       1.634746      0.551359     -1.490298
  C       2.831752      0.156517     -2.153478
  S       0.935346     -0.621582     -3.694650
  C       2.607651     -0.472597     -3.338516
  H       1.536914      1.415138     -0.645867
  H       3.822703      0.381917     -1.786741
  H       3.338555     -0.842087     -4.042036
  H      -0.884062     -3.169767     -0.130126
  H      -0.697370     -2.407129      2.474688
  H       1.851203     -1.637958      2.922191
  O       1.396295      2.425487      0.292018
  O       0.535626      0.910942      1.689795
  C       0.949169      2.097132      1.390161
  C       0.881762      3.084820      2.519425
  H       0.871728      4.102816      2.139508
  H       1.769077      2.970775      3.145285
  H       0.015005      2.913885      3.154156
  H       3.219148     -1.915914      0.638905
  H       1.527909     -2.857280     -1.254844
39
Coordinates from ORCA-job reaction4-IEIP_ts_guess_scan_0-8_orca E -1288.393299111630
  Ir      0.568098     -0.735533      0.494072
  C       0.016471     -2.812322      0.346088
  C       0.100163     -2.380026      1.720964
  C       2.183385     -2.148697      0.771576
  C       1.279891     -2.639381     -0.245364
  C       1.469611     -2.029507      1.975770
  N      -1.040514      0.168652     -0.506430
  C      -2.318256      0.504218      0.142980
  C      -3.132162      1.541614     -0.613476
  H      -3.968008      1.855194      0.010369
  H      -3.563291      1.153238     -1.537584
  H      -2.548636      2.433460     -0.844229
  C      -3.120043     -0.768256      0.386858
  H      -2.034637      0.926991      1.108480
  H      -4.040060     -0.524171      0.915797
  H      -3.394510     -1.249978     -0.552587
  H      -2.576920     -1.485330      1.000850
  C      -0.824044      0.369126     -1.748886
  C       0.528702      0.152243     -2.215669
  H      -1.602194      0.719609     -2.421308
  C       1.638517      0.562465     -1.488200
  C       2.835002      0.143021     -2.136579
  S       0.939117     -0.654981     -3.668399
  C       2.610810     -0.513796     -3.306459
  H       1.547255      1.451130     -0.676200
  H       3.826139      0.371462     -1.772239
  H       3.341836     -0.905378     -3.997728
  H      -0.874336     -3.165897     -0.152897
  H      -0.688568     -2.423720      2.457850
  H       1.858780     -1.653653      2.911080
  O       1.297699      2.435017      0.267140
  O       0.538045      0.899370      1.696259
  C       0.907139      2.096150      1.383280
  C       0.861695      3.081292      2.516196
  H       0.808930      4.098860      2.138710
  H       1.777350      2.990308      3.103852
  H       0.027334      2.887428      3.186826
  H       3.226785     -1.911028      0.625504
  H       1.536800     -2.840004     -1.275525
39
Coordinates from ORCA-job reaction4-IEIP_ts_guess_scan_0-8_orca E -1288.393305642787
  Ir      0.567319     -0.742267      0.499120
  C       0.008306     -2.817694      0.362038
  C       0.093363     -2.378213      1.734507
  C       2.177475     -2.159626      0.784682
  C       1.272337     -2.652673     -0.229703
  C       1.464023     -2.031292      1.987893
  N      -1.039793      0.164657     -0.506478
  C      -2.317440      0.500126      0.142491
  C      -3.129750      1.539533     -0.612817
  H      -3.966184      1.852222      0.010643
  H      -3.559893      1.153242     -1.538302
  H      -2.545446      2.431577     -0.840843
  C      -3.119901     -0.772546      0.383023
  H      -2.033956      0.920688      1.108933
  H      -4.040028     -0.529018      0.911951
  H      -3.394174     -1.252066     -0.557626
  H      -2.577548     -1.491296      0.995836
  C      -0.822971      0.371927     -1.747507
  C       0.530105      0.161685     -2.216611
  H      -1.600616      0.729047     -2.416986
  C       1.640348      0.556406     -1.481298
  C       2.838246      0.160277     -2.141104
  S       0.941794     -0.623245     -3.680699
  C       2.614369     -0.472087     -3.324290
  H       1.547210      1.399106     -0.652209
  H       3.828738      0.385194     -1.772904
  H       3.345752     -0.844926     -4.025371
  H      -0.883662     -3.170778     -0.135241
  H      -0.695700     -2.414973      2.471445
  H       1.854283     -1.651573      2.921193
  O       1.300313      2.419216      0.252567
  O       0.540753      0.894045      1.691956
  C       0.910746      2.088940      1.370853
  C       0.867553      3.080926      2.498912
  H       0.817333      4.096339      2.115462
  H       1.782859      2.991246      3.087320
  H       0.032657      2.893490      3.170988
  H       3.221752     -1.926439      0.637562
  H       1.528802     -2.859988     -1.258646
39
Coordinates from ORCA-job reaction4-IEIP_ts_guess_scan_0-8_orca E -1288.393430549225
  Ir      0.565910     -0.738685      0.497720
  C       0.009420     -2.814874      0.359787
  C       0.093834     -2.376091      1.732546
  C       2.177806     -2.154294      0.782652
  C       1.273360     -2.647875     -0.232066
  C       1.464024     -2.027516      1.986020
  N      -1.041304      0.164081     -0.507766
  C      -2.320063      0.497810      0.140441
  C      -3.133611      1.535933     -0.615404
  H      -3.970461      1.847974      0.007858
  H      -3.563304      1.148804     -1.540714
  H      -2.550309      2.428501     -0.843918
  C      -3.121161     -0.775727      0.381026
  H      -2.038019      0.919131      1.107007
  H      -4.042070     -0.533256      0.909138
  H      -3.393993     -1.256047     -0.559616
  H      -2.578296     -1.493461      0.994516
  C      -0.824654      0.367991     -1.749739
  C       0.528220      0.157161     -2.219247
  H      -1.603277      0.721382     -2.420084
  C       1.638394      0.555404     -1.485991
  C       2.835333      0.152723     -2.143951
  S       0.938717     -0.624706     -3.685660
  C       2.610903     -0.483371     -3.325168
  H       1.545154      1.418339     -0.654637
  H       3.826356      0.376013     -1.776148
  H       3.341826     -0.860739     -4.024400
  H      -0.882089     -3.168785     -0.137717
  H      -0.695182     -2.414357      2.469438
  H       1.853839     -1.648027      2.919595
  O       1.328408      2.429268      0.267994
  O       0.539493      0.902868      1.692394
  C       0.922343      2.095836      1.380122
  C       0.871879      3.084243      2.510207
  H       0.831273      4.101189      2.129623
  H       1.780202      2.987695      3.108265
  H       0.028611      2.898693      3.172068
  H       3.221811     -1.919826      0.635704
  H       1.530049     -2.854211     -1.261154
39
Coordinates from ORCA-job reaction4-IEIP_ts_guess_scan_0-8_orca E -1288.393431758042
  Ir      0.566328     -0.738869      0.498407
  C       0.010645     -2.814989      0.358077
  C       0.093954     -2.377594      1.731320
  C       2.178526     -2.154156      0.783141
  C       1.274936     -2.646941     -0.232726
  C       1.463849     -2.028794      1.986110
  N      -1.040668      0.164346     -0.507194
  C      -2.319041      0.499235      0.141166
  C      -3.131784      1.537967     -0.614711
  H      -3.968139      1.850985      0.008724
  H      -3.562141      1.151065     -1.539809
  H      -2.547657      2.429897     -0.843601
  C      -3.121242     -0.773537      0.382145
  H      -2.036439      0.920530      1.107584
  H      -4.041891     -0.530111      0.910270
  H      -3.394575     -1.253863     -0.558348
  H      -2.578973     -1.491592      0.995781
  C      -0.824396      0.366765     -1.749446
  C       0.528281      0.155021     -2.218568
  H      -1.603212      0.718949     -2.420215
  C       1.638281      0.554823     -1.485851
  C       2.835404      0.153159     -2.144001
  S       0.938948     -0.633877     -3.681148
  C       2.611232     -0.483775     -3.324852
  H       1.544917      1.420517     -0.658856
  H       3.826283      0.379811     -1.777884
  H       3.342334     -0.859315     -4.024871
  H      -0.880389     -3.168676     -0.140433
  H      -0.695577     -2.416856      2.467606
  H       1.852881     -1.650114      2.920339
  O       1.321506      2.427471      0.266528
  O       0.538613      0.900844      1.693441
  C       0.918384      2.094282      1.379807
  C       0.869798      3.083138      2.509640
  H       0.826294      4.099836      2.128711
  H       1.780187      2.988420      3.104854
  H       0.028956      2.896494      3.174280
  H       3.222560     -1.919203      0.637179
  H       1.532394     -2.852103     -1.261857
39
Coordinates from ORCA-job reaction4-IEIP_ts_guess_scan_0-8_orca E -1288.393435163270
  Ir      0.566553     -0.738766      0.498369
  C       0.011046     -2.814890      0.357867
  C       0.094336     -2.377633      1.731146
  C       2.178891     -2.153941      0.782995
  C       1.275315     -2.646681     -0.232914
  C       1.464205     -2.028746      1.985969
  N      -1.040673      0.164333     -0.507131
  C      -2.319029      0.498781      0.141477
  C      -3.131630      1.538236     -0.613567
  H      -3.967900      1.850915      0.010150
  H      -3.562101      1.152148     -1.538954
  H      -2.547341      2.430232     -0.841785
  C      -3.121318     -0.774147      0.381331
  H      -2.036436      0.919246      1.108252
  H      -4.041986     -0.531110      0.909596
  H      -3.394614     -1.253671     -0.559585
  H      -2.579132     -1.492757      0.994398
  C      -0.824679      0.367372     -1.749337
  C       0.527940      0.156469     -2.218906
  H      -1.603729      0.719777     -2.419716
  C       1.637982      0.555436     -1.485838
  C       2.835121      0.152313     -2.142980
  S       0.938781     -0.628518     -3.683497
  C       2.610911     -0.485261     -3.323489
  H       1.545014      1.419654     -0.658539
  H       3.826046      0.376578     -1.775520
  H       3.342031     -0.863090     -4.022253
  H      -0.879960     -3.168595     -0.140686
  H      -0.695193     -2.417034      2.467427
  H       1.853216     -1.650150      2.920240
  O       1.320752      2.427561      0.265600
  O       0.538926      0.900977      1.693148
  C       0.918383      2.094414      1.379160
  C       0.869507      3.083660      2.508674
  H       0.824868      4.100171      2.127382
  H       1.780347      2.990005      3.103366
  H       0.029234      2.896522      3.173906
  H       3.222912     -1.918908      0.637060
  H       1.532771     -2.851707     -1.262075
