! Opt PBEh-3c
%geom Constraints
{ B 0 20 2.0 C }
{ B 24 30 1.3285714285714287 C }
    end
end
%output 
xyzfile=True 
end 
%scf 
maxiter 250 
end
%output
Print[P_Hirshfeld] = 1
end
% maxcore
4000
%pal nprocs 2
end
*xyz 1 1
Ir   0.61405711  -0.74503001   0.39945710 
C    0.17467830  -2.86162755   0.32912894 
C   -0.12152697  -2.43204768   1.67356727 
C    2.12243180  -2.04805382   1.26694509 
C    1.55807826  -2.66029563   0.10222287 
C    1.07287863  -1.94689361   2.23322259 
N   -1.08389058   0.09994332  -0.50585181 
C   -2.35424884   0.26941990   0.21444043 
C   -3.14107129   1.50107445  -0.21027311 
H   -3.97293485   1.64189059   0.47798362 
H   -3.57397081   1.40679824  -1.20709387 
H   -2.53137959   2.40427962  -0.17682274 
C   -3.18530030  -1.00119890   0.07463856 
H   -2.07292058   0.39333278   1.26139406 
H   -4.08536414  -0.92705148   0.68371634 
H   -3.49401891  -1.15581814  -0.96001498 
H   -2.63892352  -1.88517354   0.39977896 
C   -0.93925409   0.49011084  -1.71992576 
C    0.37504004   0.32161186  -2.25640801 
H   -1.74916772   0.94192909  -2.28303788 
C    1.38200046  -0.02311014  -1.35050292 
C    2.60944130  -0.22086051  -2.06043889 
S    0.90479701   0.42791629  -3.86493972 
C    2.49381927  -0.00529603  -3.40108122 
H    1.63700249   1.18561722  -0.71338302 
H    3.55132245  -0.45795679  -1.58683892 
H    3.27244580  -0.06152476  -4.14665096 
H   -0.51557294  -3.32224425  -0.36228583 
H   -1.07614638  -2.49433217   2.17291948 
H    1.16920407  -1.50045356   3.21273269 
O    1.75851363   2.31309527   0.00584823 
O    0.62062220   1.05304350   1.44706750 
C    1.18118613   2.13133379   1.10573979 
C    1.17980563   3.26042058   2.09186022 
H    1.06008942   4.21525041   1.58510379 
H    2.14444566   3.28429038   2.60190719 
H    0.40250042   3.13279193   2.83966383 
H    3.16252322  -1.81300704   1.43157006 
H    2.08817822  -2.91298448  -0.80461901 
*
