39
Coordinates from ORCA-job reaction4-IEIP_ts_guess_scan_11-8_orca E -1288.401434472160
  Ir      0.616799     -0.720422      0.423103
  C       0.134358     -2.833048      0.328337
  C      -0.048680     -2.374872      1.680892
  C       2.172992     -2.070945      1.106816
  C       1.489774     -2.650314     -0.019583
  C       1.218273     -1.932265      2.147734
  N      -1.064558      0.128242     -0.513969
  C      -2.336734      0.338166      0.194389
  C      -3.134378      1.529154     -0.317606
  H      -3.963441      1.716012      0.363175
  H      -3.572984      1.354867     -1.301078
  H      -2.532409      2.437265     -0.356771
  C      -3.159100     -0.944905      0.145812
  H      -2.054783      0.537224      1.229293
  H      -4.065548     -0.826935      0.738174
  H      -3.457237     -1.182312     -0.876207
  H      -2.613649     -1.797004      0.548061
  C      -0.912929      0.459835     -1.737604
  C       0.406335      0.279330     -2.254467
  H      -1.719478      0.877897     -2.331634
  C       1.453393      0.113742     -1.347517
  C       2.662522     -0.159384     -2.058146
  S       0.879955      0.128422     -3.876683
  C       2.499235     -0.175876     -3.409670
  H       1.607215      1.128920     -0.583661
  H       3.626370     -0.277385     -1.584492
  H       3.254139     -0.329120     -4.165886
  H      -0.627875     -3.255498     -0.310062
  H      -0.957055     -2.422332      2.262008
  H       1.408832     -1.492379      3.116553
  O       1.716161      2.304502      0.141834
  O       0.553373      1.016593      1.533452
  C       1.115500      2.115146      1.213228
  C       1.054620      3.222021      2.224923
  H       0.943202      4.184449      1.730764
  H       1.996758      3.249374      2.775055
  H       0.249309      3.072074      2.938594
  H       3.226348     -1.847116      1.174783
  H       1.934743     -2.901931     -0.971205
39
Coordinates from ORCA-job reaction4-IEIP_ts_guess_scan_11-8_orca E -1288.401441208663
  Ir      0.615345     -0.712571      0.418411
  C       0.139077     -2.829120      0.326903
  C      -0.044765     -2.372699      1.679846
  C       2.174813     -2.059998      1.105099
  C       1.493837     -2.642450     -0.020977
  C       1.219503     -1.924772      2.145639
  N      -1.071060      0.128725     -0.515794
  C      -2.342703      0.338432      0.193678
  C      -3.143233      1.525863     -0.322001
  H      -3.972296      1.713291      0.358589
  H      -3.581962      1.347054     -1.304618
  H      -2.543329      2.435196     -0.364822
  C      -3.162585     -0.946404      0.150645
  H      -2.060183      0.541739      1.227638
  H      -4.068746     -0.828155      0.743384
  H      -3.461199     -1.188120     -0.870239
  H      -2.615053     -1.795930      0.555491
  C      -0.918672      0.456682     -1.745059
  C       0.403188      0.276930     -2.265011
  H      -1.726488      0.870891     -2.340018
  C       1.449597      0.114913     -1.356444
  C       2.658933     -0.163128     -2.065404
  S       0.878150      0.121329     -3.886466
  C       2.496452     -0.185649     -3.416856
  H       1.611529      1.153826     -0.611791
  H       3.622617     -0.279314     -1.590781
  H       3.251755     -0.343818     -4.171560
  H      -0.621702     -3.254696     -0.311186
  H      -0.952472     -2.424051      2.261566
  H       1.408550     -1.484450      3.114560
  O       1.778514      2.274025      0.186628
  O       0.538251      1.022801      1.535901
  C       1.132446      2.108328      1.235534
  C       1.057781      3.222175      2.238257
  H       0.986381      4.183971      1.735454
  H       1.978802      3.232171      2.823622
  H       0.222875      3.093842      2.921363
  H       3.227586     -1.833591      1.173691
  H       1.939836     -2.894078     -0.972131
39
Coordinates from ORCA-job reaction4-IEIP_ts_guess_scan_11-8_orca E -1288.400420124353
  Ir      0.624908     -0.718087      0.418804
  C       0.140800     -2.837412      0.322230
  C      -0.039385     -2.391152      1.678854
  C       2.178370     -2.077971      1.101962
  C       1.495601     -2.653141     -0.026358
  C       1.223802     -1.947190      2.143664
  N      -1.060552      0.134583     -0.503960
  C      -2.330908      0.346797      0.206485
  C      -3.122681      1.543107     -0.301994
  H      -3.952100      1.730716      0.378049
  H      -3.560053      1.374183     -1.286986
  H      -2.517013      2.448984     -0.336849
  C      -3.159138     -0.932229      0.152912
  H      -2.048361      0.540365      1.242351
  H      -4.065351     -0.812625      0.745282
  H      -3.457956     -1.164258     -0.870183
  H      -2.617659     -1.788284      0.552089
  C      -0.899165      0.474693     -1.738526
  C       0.426651      0.289430     -2.266611
  H      -1.703917      0.899444     -2.330066
  C       1.468334      0.097027     -1.357439
  C       2.673162     -0.201755     -2.067189
  S       0.902415      0.141831     -3.888662
  C       2.512970     -0.207236     -3.418818
  H       1.675957      1.161940     -0.630503
  H       3.633754     -0.341179     -1.592172
  H       3.266551     -0.374944     -4.173020
  H      -0.621642     -3.258269     -0.317061
  H      -0.945723     -2.445290      2.262207
  H       1.414861     -1.513633      3.115232
  O       1.583593      2.327416      0.113365
  O       0.540597      1.013687      1.558457
  C       1.055478      2.126316      1.221785
  C       1.017185      3.232992      2.233386
  H       0.849236      4.190619      1.745747
  H       1.986969      3.290275      2.730674
  H       0.257293      3.059374      2.989875
  H       3.232137     -1.856763      1.172282
  H       1.940349     -2.903170     -0.978556
39
Coordinates from ORCA-job reaction4-IEIP_ts_guess_scan_11-8_orca E -1288.401759002127
  Ir      0.615886     -0.720703      0.421224
  C       0.129381     -2.836800      0.337333
  C      -0.048160     -2.380336      1.690885
  C       2.170026     -2.075009      1.108178
  C       1.483965     -2.656195     -0.015236
  C       1.217756     -1.935485      2.151256
  N      -1.068006      0.126478     -0.510745
  C      -2.340174      0.335759      0.196335
  C      -3.136293      1.527263     -0.316706
  H      -3.967474      1.713469      0.361644
  H      -3.571590      1.353689     -1.301789
  H      -2.534237      2.435433     -0.353317
  C      -3.162544     -0.947179      0.145268
  H      -2.059646      0.533551      1.231841
  H      -4.070004     -0.829780      0.736179
  H      -3.458934     -1.183536     -0.877507
  H      -2.617659     -1.799587      0.547671
  C      -0.912068      0.461600     -1.740167
  C       0.411320      0.284927     -2.262931
  H      -1.718858      0.881780     -2.332169
  C       1.453950      0.103152     -1.353523
  C       2.666088     -0.167034     -2.061799
  S       0.890831      0.147461     -3.884424
  C       2.508631     -0.165001     -3.414060
  H       1.622241      1.146309     -0.602065
  H       3.627965     -0.291290     -1.585451
  H       3.266840     -0.310420     -4.168441
  H      -0.634990     -3.260239     -0.297874
  H      -0.954040     -2.428223      2.275649
  H       1.411224     -1.495014      3.119224
  O       1.698955      2.319051      0.132097
  O       0.555218      1.020218      1.533549
  C       1.110605      2.120841      1.211088
  C       1.057980      3.224656      2.225244
  H       0.936074      4.187930      1.735189
  H       2.006769      3.254712      2.763675
  H       0.262142      3.068529      2.947992
  H       3.224027     -1.853815      1.174458
  H       1.926172     -2.911971     -0.967036
39
Coordinates from ORCA-job reaction4-IEIP_ts_guess_scan_11-8_orca E -1288.401794745773
  Ir      0.615499     -0.719179      0.421032
  C       0.128561     -2.834549      0.339351
  C      -0.049880     -2.377787      1.692473
  C       2.168728     -2.072736      1.111079
  C       1.483582     -2.654634     -0.012299
  C       1.215631     -1.932665      2.153314
  N      -1.067480      0.126607     -0.512650
  C      -2.340039      0.334130      0.194267
  C      -3.139169      1.523608     -0.318897
  H      -3.970328      1.708449      0.359865
  H      -3.574799      1.348447     -1.303525
  H      -2.539087      2.433029     -0.356483
  C      -3.159925     -0.950538      0.145140
  H      -2.059367      0.533266      1.229562
  H      -4.067397     -0.834277      0.736293
  H      -3.456164     -1.188733     -0.877234
  H      -2.613080     -1.801274      0.548417
  C      -0.912844      0.462840     -1.740237
  C       0.408837      0.287239     -2.263918
  H      -1.720406      0.883202     -2.330972
  C       1.451782      0.102215     -1.355695
  C       2.663037     -0.166865     -2.065348
  S       0.888937      0.164216     -3.886290
  C       2.504246     -0.162478     -3.417496
  H       1.621827      1.149868     -0.611178
  H       3.624577     -0.296642     -1.589977
  H       3.261235     -0.309661     -4.172772
  H      -0.635369     -3.258196     -0.296218
  H      -0.956348     -2.424856      2.276414
  H       1.408456     -1.491372      3.121046
  O       1.728038      2.304816      0.147122
  O       0.553025      1.021197      1.532458
  C       1.119044      2.116853      1.216217
  C       1.060142      3.224790      2.226037
  H       0.953897      4.187503      1.731236
  H       2.000787      3.248730      2.778901
  H       0.252013      3.077803      2.937001
  H       3.222726     -1.851805      1.178228
  H       1.926447     -2.911371     -0.963523
39
Coordinates from ORCA-job reaction4-IEIP_ts_guess_scan_11-8_orca E -1288.401827019044
  Ir      0.614701     -0.721502      0.422030
  C       0.124883     -2.836141      0.344827
  C      -0.052430     -2.378405      1.697683
  C       2.166139     -2.075973      1.114616
  C       1.480118     -2.658410     -0.007775
  C       1.213392     -1.933807      2.157094
  N      -1.067516      0.125702     -0.512788
  C      -2.340806      0.331575      0.193504
  C      -3.140772      1.520952     -0.318570
  H      -3.972342      1.704247      0.360067
  H      -3.575907      1.346529     -1.303552
  H      -2.541464      2.430948     -0.354864
  C      -3.159962     -0.953538      0.142827
  H      -2.060889      0.529782      1.229230
  H      -4.068012     -0.838200      0.733263
  H      -3.455133     -1.191185     -0.879988
  H      -2.612994     -1.804170      0.546032
  C      -0.912255      0.465213     -1.739538
  C       0.408855      0.289936     -2.264380
  H      -1.719938      0.886818     -2.329221
  C       1.450645      0.096570     -1.356388
  C       2.662729     -0.167312     -2.066562
  S       0.889917      0.175266     -3.886990
  C       2.506305     -0.147090     -3.418890
  H       1.623791      1.148506     -0.614533
  H       3.623619     -0.301305     -1.591075
  H       3.264761     -0.284972     -4.174459
  H      -0.639737     -3.259708     -0.289969
  H      -0.958770     -2.423613      2.281941
  H       1.407141     -1.491420      3.124149
  O       1.732590      2.303001      0.144091
  O       0.556393      1.021848      1.530606
  C       1.124797      2.115618      1.214361
  C       1.064833      3.226399      2.221092
  H       0.958407      4.187795      1.723779
  H       2.005167      3.252197      2.774377
  H       0.256338      3.080876      2.931946
  H       3.220472     -1.856584      1.181508
  H       1.922303     -2.917252     -0.958740
39
Coordinates from ORCA-job reaction4-IEIP_ts_guess_scan_11-8_orca E -1288.401869265252
  Ir      0.611984     -0.727419      0.423936
  C       0.116984     -2.840318      0.358412
  C      -0.059107     -2.379743      1.710331
  C       2.159623     -2.082038      1.124874
  C       1.472960     -2.666957      0.004575
  C       1.206698     -1.935014      2.167125
  N      -1.067970      0.122019     -0.513972
  C      -2.342721      0.323950      0.191267
  C      -3.144730      1.513135     -0.317927
  H      -3.976974      1.692718      0.360785
  H      -3.579081      1.340580     -1.303606
  H      -2.547251      2.424475     -0.351286
  C      -3.160104     -0.962176      0.136894
  H      -2.064355      0.519910      1.227945
  H      -4.069553     -0.848856      0.725531
  H      -3.452670     -1.198587     -0.886961
  H      -2.612996     -1.812606      0.540080
  C      -0.910853      0.471607     -1.738111
  C       0.409766      0.300237     -2.265026
  H      -1.718308      0.898552     -2.324257
  C       1.447988      0.083423     -1.357763
  C       2.662200     -0.167611     -2.069130
  S       0.897176      0.224067     -3.887773
  C       2.510535     -0.115031     -3.421246
  H       1.629149      1.144262     -0.619877
  H       3.620676     -0.317669     -1.593588
  H       3.271281     -0.237989     -4.177109
  H      -0.648366     -3.264707     -0.274969
  H      -0.965634     -2.420790      2.294534
  H       1.401528     -1.489183      3.132392
  O       1.733207      2.305141      0.129613
  O       0.562665      1.024274      1.523092
  C       1.129609      2.116570      1.203264
  C       1.078779      3.228761      2.209090
  H       0.969074      4.189640      1.711593
  H       2.023443      3.254586      2.754970
  H       0.275692      3.084462      2.926286
  H       3.214513     -1.865436      1.191976
  H       1.914512     -2.931049     -0.945226
39
Coordinates from ORCA-job reaction4-IEIP_ts_guess_scan_11-8_orca E -1288.401870129361
  Ir      0.611774     -0.729649      0.423668
  C       0.116046     -2.841605      0.360267
  C      -0.061829     -2.380100      1.711654
  C       2.157885     -2.083373      1.129116
  C       1.472827     -2.669251      0.008425
  C       1.203394     -1.935163      2.169861
  N      -1.066779      0.120741     -0.514703
  C      -2.340813      0.323073      0.191579
  C      -3.143087      1.512330     -0.316984
  H      -3.974558      1.692025      0.362658
  H      -3.578482      1.339806     -1.302208
  H      -2.545546      2.423612     -0.350950
  C      -3.158410     -0.962889      0.138068
  H      -2.061493      0.519274      1.227957
  H      -4.067759     -0.848926      0.726746
  H      -3.451126     -1.199842     -0.885599
  H      -2.611532     -1.813279      0.541721
  C      -0.910218      0.472952     -1.737773
  C       0.409631      0.301790     -2.265476
  H      -1.717583      0.902130     -2.322334
  C       1.447341      0.079283     -1.359104
  C       2.661724     -0.167789     -2.071398
  S       0.898224      0.237604     -3.888370
  C       2.510630     -0.106833     -3.423281
  H       1.630294      1.142502     -0.623409
  H       3.619723     -0.322716     -1.596470
  H       3.271595     -0.225876     -4.179557
  H      -0.648354     -3.266473     -0.273933
  H      -0.969344     -2.420067      2.294397
  H       1.397006     -1.488246      3.134867
  O       1.734541      2.302589      0.127280
  O       0.562070      1.023152      1.520155
  C       1.129711      2.114839      1.200569
  C       1.078030      3.228029      2.205300
  H       0.968294      4.188367      1.706740
  H       2.022430      3.254600      2.751571
  H       0.274626      3.084275      2.922258
  H       3.212742     -1.867082      1.197799
  H       1.915742     -2.934625     -0.940368
39
Coordinates from ORCA-job reaction4-IEIP_ts_guess_scan_11-8_orca E -1288.401870633099
  Ir      0.611955     -0.730571      0.423302
  C       0.116932     -2.842341      0.360166
  C      -0.063065     -2.380080      1.711113
  C       2.157525     -2.083278      1.131924
  C       1.474323     -2.669930      0.010503
  C       1.201415     -1.934734      2.171165
  N      -1.066647      0.120256     -0.515036
  C      -2.340330      0.322667      0.191971
  C      -3.142529      1.512400     -0.315646
  H      -3.973623      1.691849      0.364545
  H      -3.578402      1.340589     -1.300775
  H      -2.544863      2.423618     -0.349282
  C      -3.158298     -0.963005      0.137915
  H      -2.060601      0.518433      1.228289
  H      -4.067701     -0.848908      0.726502
  H      -3.450963     -1.199508     -0.885862
  H      -2.611856     -1.813796      0.541285
  C      -0.910359      0.473466     -1.737820
  C       0.409263      0.301663     -2.265780
  H      -1.717555      0.903592     -2.321860
  C       1.447078      0.077894     -1.359890
  C       2.661460     -0.167665     -2.072616
  S       0.897990      0.240602     -3.888808
  C       2.510256     -0.104728     -3.424422
  H       1.630048      1.141531     -0.624672
  H       3.619450     -0.323761     -1.598045
  H       3.271210     -0.222561     -4.180893
  H      -0.646269     -3.267953     -0.274974
  H      -0.971470     -2.419905      2.292482
  H       1.393482     -1.487267      3.136218
  O       1.734664      2.301545      0.126079
  O       0.561378      1.023042      1.518993
  C       1.128962      2.114760      1.198999
  C       1.078340      3.227661      2.204054
  H       0.968607      4.188117      1.705706
  H       2.023149      3.253751      2.749647
  H       0.275400      3.084096      2.921561
  H       3.212210     -1.866649      1.202153
  H       1.918805     -2.935703     -0.937448
