39
Coordinates from ORCA-job reaction4-IEIP_ts_guess_scan_14-3_orca E -1288.393284561610
  Ir      0.629836     -0.716597      0.378126
  C       0.170689     -2.842058      0.298312
  C      -0.039560     -2.403143      1.653580
  C       2.182537     -2.048732      1.111945
  C       1.532341     -2.644571     -0.021855
  C       1.202545     -1.934776      2.139632
  N      -1.072695      0.132913     -0.520441
  C      -2.331999      0.341484      0.207860
  C      -3.133258      1.539086     -0.281815
  H      -3.954575      1.719087      0.410019
  H      -3.582583      1.376012     -1.262401
  H      -2.530354      2.446766     -0.317192
  C      -3.157467     -0.940056      0.158973
  H      -2.032956      0.528811      1.240224
  H      -4.051720     -0.827838      0.770599
  H      -3.475830     -1.163722     -0.860000
  H      -2.604864     -1.797651      0.538995
  C      -0.931067      0.481517     -1.741266
  C       0.385870      0.279889     -2.252546
  H      -1.732581      0.923045     -2.324015
  C       1.397199      0.036218     -1.308417
  C       2.624626     -0.229959     -2.007207
  S       0.905627      0.201786     -3.858878
  C       2.503863     -0.171513     -3.359228
  H       1.580609      1.106417     -0.670336
  H       3.571353     -0.393057     -1.512424
  H       3.278110     -0.302866     -4.099827
  H      -0.571142     -3.282590     -0.351667
  H      -0.958857     -2.462227      2.215794
  H       1.367291     -1.491840      3.111716
  O       1.677470      2.353758      0.076673
  O       0.583339      1.023354      1.486915
  C       1.111573      2.138162      1.159090
  C       1.050227      3.230273      2.189183
  H       0.979514      4.204507      1.711801
  H       1.973948      3.218191      2.770356
  H       0.220414      3.088437      2.876463
  H       3.232639     -1.819519      1.206583
  H       1.999258     -2.897810     -0.962583
39
Coordinates from ORCA-job reaction4-IEIP_ts_guess_scan_14-3_orca E -1288.393356613106
  Ir      0.628186     -0.710512      0.374077
  C       0.174059     -2.839743      0.297755
  C      -0.036104     -2.402663      1.653636
  C       2.183877     -2.041010      1.110662
  C       1.535165     -2.639362     -0.022636
  C       1.203815     -1.930171      2.138387
  N      -1.078777      0.132356     -0.521548
  C      -2.337354      0.341545      0.207992
  C      -3.140318      1.536635     -0.284968
  H      -3.961545      1.717772      0.406658
  H      -3.589764      1.369953     -1.264897
  H      -2.538603      2.444998     -0.323475
  C      -3.161571     -0.940944      0.164149
  H      -2.037620      0.532627      1.239511
  H      -4.055432     -0.827739      0.776179
  H      -3.480646     -1.168336     -0.853787
  H      -2.607752     -1.796725      0.546490
  C      -0.936254      0.477172     -1.748125
  C       0.383148      0.276593     -2.262093
  H      -1.738866      0.915274     -2.331853
  C       1.393618      0.036733     -1.315815
  C       2.622291     -0.230249     -2.013347
  S       0.904994      0.196667     -3.867974
  C       2.502687     -0.176031     -3.365593
  H       1.582011      1.124802     -0.694997
  H       3.569085     -0.389929     -1.517414
  H       3.277851     -0.309376     -4.104777
  H      -0.566731     -3.282832     -0.351704
  H      -0.954620     -2.465001      2.216691
  H       1.367751     -1.487272      3.110632
  O       1.737747      2.326575      0.114170
  O       0.570089      1.028714      1.488462
  C       1.128385      2.132286      1.177035
  C       1.052227      3.231302      2.198394
  H       1.017874      4.203995      1.713857
  H       1.954327      3.204395      2.812129
  H       0.195854      3.109659      2.856219
  H       3.233581     -1.810027      1.205640
  H       2.002706     -2.892940     -0.962983
39
Coordinates from ORCA-job reaction4-IEIP_ts_guess_scan_14-3_orca E -1288.392581418694
  Ir      0.637026     -0.715747      0.374942
  C       0.172631     -2.848310      0.294908
  C      -0.032148     -2.421636      1.654912
  C       2.186150     -2.062436      1.108819
  C       1.534170     -2.652869     -0.026409
  C       1.207603     -1.955180      2.138266
  N      -1.068404      0.137847     -0.508945
  C      -2.325975      0.349201      0.221200
  C      -3.119950      1.552703     -0.265737
  H      -3.942227      1.734239      0.424498
  H      -3.566997      1.395527     -1.248348
  H      -2.512564      2.457617     -0.296195
  C      -3.158501     -0.927439      0.167206
  H      -2.026885      0.531365      1.254567
  H      -4.052798     -0.812788      0.778352
  H      -3.477247     -1.145863     -0.852808
  H      -2.610964     -1.789420      0.544683
  C      -0.916108      0.494278     -1.741416
  C       0.407248      0.289783     -2.262987
  H      -1.715539      0.942090     -2.321911
  C       1.410812      0.020448     -1.315996
  C       2.636960     -0.261871     -2.015129
  S       0.932831      0.221713     -3.868897
  C       2.521707     -0.189466     -3.366668
  H       1.642131      1.130616     -0.715256
  H       3.580282     -0.442049     -1.519286
  H       3.296478     -0.329382     -4.104873
  H      -0.570739     -3.285837     -0.355425
  H      -0.949161     -2.485381      2.220044
  H       1.374908     -1.519840      3.113349
  O       1.545357      2.370389      0.044259
  O       0.573577      1.019784      1.509132
  C       1.052297      2.147804      1.161609
  C       1.013888      3.242522      2.188477
  H       0.886530      4.211654      1.712295
  H       1.968098      3.262038      2.717846
  H       0.227816      3.077909      2.920297
  H       3.237307     -1.838631      1.205198
  H       1.999768     -2.906193     -0.967835
39
Coordinates from ORCA-job reaction4-IEIP_ts_guess_scan_14-3_orca E -1288.393613148696
  Ir      0.629329     -0.716493      0.376153
  C       0.165142     -2.845714      0.305965
  C      -0.039086     -2.410032      1.663064
  C       2.179814     -2.055303      1.113369
  C       1.526408     -2.651484     -0.018081
  C       1.202454     -1.941377      2.143501
  N      -1.075030      0.131487     -0.516402
  C      -2.333902      0.340477      0.211227
  C      -3.133121      1.538680     -0.280282
  H      -3.956407      1.719122      0.409095
  H      -3.579283      1.375946     -1.262373
  H      -2.529612      2.446034     -0.313854
  C      -3.160288     -0.940362      0.161509
  H      -2.035798      0.527612      1.243874
  H      -4.055256     -0.827538      0.771996
  H      -3.477565     -1.163977     -0.857808
  H      -2.608693     -1.798278      0.542371
  C      -0.929372      0.481873     -1.743662
  C       0.390968      0.283073     -2.260735
  H      -1.731275      0.924619     -2.324701
  C       1.397655      0.026098     -1.314478
  C       2.628996     -0.233681     -2.011649
  S       0.916967      0.219094     -3.866046
  C       2.513892     -0.158484     -3.363292
  H       1.594702      1.122352     -0.695949
  H       3.574305     -0.399766     -1.514916
  H       3.291752     -0.281071     -4.101514
  H      -0.579035     -3.286194     -0.341374
  H      -0.956159     -2.469266      2.228731
  H       1.370635     -1.499511      3.115476
  O       1.664421      2.359682      0.070484
  O       0.583257      1.025163      1.488172
  C       1.105743      2.141302      1.157849
  C       1.048784      3.233404      2.186840
  H       0.970899      4.207183      1.709602
  H       1.976989      3.224749      2.760851
  H       0.224617      3.088334      2.880027
  H       3.230840     -1.829875      1.206748
  H       1.990686     -2.908687     -0.959049
39
Coordinates from ORCA-job reaction4-IEIP_ts_guess_scan_14-3_orca E -1288.393644465965
  Ir      0.628073     -0.716575      0.376553
  C       0.162991     -2.845031      0.309632
  C      -0.041048     -2.408972      1.666500
  C       2.177751     -2.054807      1.116076
  C       1.524381     -2.651561     -0.014812
  C       1.200427     -1.940279      2.146295
  N      -1.075314      0.130364     -0.517704
  C      -2.334731      0.337668      0.209408
  C      -3.135835      1.534965     -0.281386
  H      -3.959365      1.713886      0.408095
  H      -3.581849      1.372046     -1.263487
  H      -2.533628      2.443196     -0.314546
  C      -3.159441     -0.944291      0.159754
  H      -2.036850      0.524876      1.242173
  H      -4.054602     -0.832629      0.770189
  H      -3.476278     -1.168393     -0.859581
  H      -2.606649     -1.801354      0.540770
  C      -0.930302      0.482506     -1.743223
  C       0.389120      0.285803     -2.260675
  H      -1.732682      0.925993     -2.322969
  C       1.395447      0.024372     -1.315231
  C       2.626997     -0.232267     -2.012820
  S       0.917811      0.238762     -3.865559
  C       2.512062     -0.151557     -3.364177
  H       1.593404      1.123766     -0.701236
  H       3.571455     -0.404145     -1.516570
  H       3.289718     -0.273417     -4.102758
  H      -0.581349     -3.285693     -0.337379
  H      -0.958290     -2.467183      2.232018
  H       1.368853     -1.497634      3.117875
  O       1.684751      2.353067      0.075770
  O       0.584352      1.026534      1.485342
  C       1.115014      2.139035      1.158330
  C       1.053712      3.233985      2.184401
  H       0.984682      4.207116      1.704491
  H       1.976608      3.222355      2.766890
  H       0.222594      3.094246      2.870387
  H       3.228857     -1.829828      1.209488
  H       1.988524     -2.909734     -0.955582
39
Coordinates from ORCA-job reaction4-IEIP_ts_guess_scan_14-3_orca E -1288.393683225390
  Ir      0.625569     -0.719398      0.377931
  C       0.156683     -2.846350      0.318903
  C      -0.045938     -2.409377      1.675567
  C       2.172640     -2.058010      1.122597
  C       1.518456     -2.655782     -0.006843
  C       1.195772     -1.941250      2.153374
  N      -1.075967      0.127898     -0.519157
  C      -2.336542      0.332428      0.206890
  C      -3.139719      1.529060     -0.282212
  H      -3.963873      1.705300      0.407171
  H      -3.585061      1.366957     -1.264739
  H      -2.539134      2.438444     -0.313553
  C      -3.159357     -0.950740      0.155770
  H      -2.039555      0.518788      1.240168
  H      -4.055238     -0.840781      0.765455
  H      -3.474814     -1.174687     -0.864021
  H      -2.605564     -1.807068      0.536866
  C      -0.930856      0.484127     -1.742600
  C       0.387282      0.289012     -2.261271
  H      -1.733906      0.928570     -2.320640
  C       1.391718      0.016748     -1.316502
  C       2.625362     -0.229900     -2.013916
  S       0.919472      0.260550     -3.865288
  C       2.514678     -0.125592     -3.364078
  H       1.592546      1.124784     -0.712532
  H       3.568384     -0.408658     -1.517505
  H       3.295171     -0.233179     -4.101920
  H      -0.588564     -3.287042     -0.327057
  H      -0.963255     -2.464854      2.241215
  H       1.365451     -1.497032      3.124021
  O       1.700125      2.347649      0.072512
  O       0.588691      1.028553      1.480053
  C       1.124517      2.137411      1.153203
  C       1.065909      3.235260      2.176793
  H       1.002518      4.207736      1.694825
  H       1.987309      3.220704      2.761631
  H       0.232467      3.100726      2.861029
  H       3.224178     -1.834996      1.215813
  H       1.981815     -2.916818     -0.947211
39
Coordinates from ORCA-job reaction4-IEIP_ts_guess_scan_14-3_orca E -1288.393716106972
  Ir      0.623921     -0.723508      0.378746
  C       0.151902     -2.848983      0.326027
  C      -0.050177     -2.411666      1.682724
  C       2.168454     -2.062138      1.128799
  C       1.514287     -2.660815      0.000063
  C       1.191346     -1.943733      2.159631
  N      -1.076049      0.125215     -0.519784
  C      -2.337112      0.327885      0.206278
  C      -3.140822      1.525116     -0.280318
  H      -3.965031      1.699308      0.409468
  H      -3.586103      1.365013     -1.263224
  H      -2.540701      2.434894     -0.309531
  C      -3.159544     -0.955415      0.152729
  H      -2.040538      0.512429      1.240050
  H      -4.055967     -0.846406      0.761755
  H      -3.473997     -1.178072     -0.867659
  H      -2.605927     -1.812070      0.533247
  C      -0.930018      0.487324     -1.741644
  C       0.388198      0.294728     -2.261072
  H      -1.732842      0.935014     -2.317514
  C       1.390110      0.009662     -1.316959
  C       2.625640     -0.229029     -2.014259
  S       0.926143      0.291957     -3.863328
  C       2.518178     -0.107904     -3.363358
  H       1.595091      1.124905     -0.720440
  H       3.566754     -0.417897     -1.517970
  H       3.300307     -0.207875     -4.100556
  H      -0.593686     -3.289747     -0.319531
  H      -0.967853     -2.465067      2.247940
  H       1.361531     -1.498270      3.129616
  O       1.694882      2.351410      0.059938
  O       0.593546      1.029516      1.474472
  C       1.126039      2.138439      1.144397
  C       1.073173      3.236584      2.168103
  H       1.004522      4.208856      1.686485
  H       1.998856      3.223752      2.746174
  H       0.244999      3.100629      2.858409
  H       3.220284     -1.840692      1.222534
  H       1.977570     -2.924159     -0.939699
39
Coordinates from ORCA-job reaction4-IEIP_ts_guess_scan_14-3_orca E -1288.393726888608
  Ir      0.624165     -0.725871      0.378464
  C       0.151681     -2.850507      0.326393
  C      -0.051987     -2.413284      1.683011
  C       2.167342     -2.063768      1.131779
  C       1.514740     -2.662850      0.002353
  C       1.188835     -1.945247      2.161458
  N      -1.075200      0.124416     -0.519660
  C      -2.335664      0.327484      0.207399
  C      -3.138634      1.525696     -0.277877
  H      -3.962241      1.699878      0.412642
  H      -3.584642      1.366833     -1.260661
  H      -2.537857      2.435063     -0.306603
  C      -3.159002     -0.955155      0.153123
  H      -2.038393      0.511144      1.241109
  H      -4.055332     -0.845741      0.762214
  H      -3.473641     -1.176983     -0.867381
  H      -2.606112     -1.812515      0.533130
  C      -0.929175      0.488694     -1.741091
  C       0.389020      0.295467     -2.260957
  H      -1.731639      0.938051     -2.316126
  C       1.390422      0.007057     -1.317316
  C       2.626205     -0.229931     -2.014883
  S       0.927712      0.297190     -3.862912
  C       2.519596     -0.103414     -3.363613
  H       1.596595      1.124882     -0.724347
  H       3.566896     -0.421555     -1.518830
  H       3.302167     -0.200406     -4.100734
  H      -0.593027     -3.291452     -0.320058
  H      -0.970499     -2.466349      2.246888
  H       1.357849     -1.499522      3.131514
  O       1.685918      2.353934      0.053290
  O       0.594596      1.028576      1.472414
  C       1.123000      2.138799      1.140566
  C       1.071765      3.236552      2.164746
  H       0.997806      4.208706      1.683665
  H       2.000317      3.226342      2.738240
  H       0.247408      3.097948      2.859068
  H       3.219065     -1.842418      1.226997
  H       1.979315     -2.926554     -0.936673
39
Coordinates from ORCA-job reaction4-IEIP_ts_guess_scan_14-3_orca E -1288.393731689574
  Ir      0.624586     -0.727593      0.378098
  C       0.152844     -2.851719      0.325847
  C      -0.053517     -2.414391      1.682198
  C       2.166721     -2.064034      1.135184
  C       1.516670     -2.663860      0.004676
  C       1.186077     -1.945797      2.163077
  N      -1.074984      0.123962     -0.519473
  C      -2.335084      0.326867      0.208417
  C      -3.137440      1.526217     -0.275018
  H      -3.960686      1.699818      0.416096
  H      -3.583860      1.369125     -1.257898
  H      -2.536190      2.435316     -0.302519
  C      -3.159127     -0.955215      0.152333
  H      -2.037395      0.509075      1.242231
  H      -4.055498     -0.846025      0.761414
  H      -3.473755     -1.175499     -0.868503
  H      -2.606895     -1.813478      0.531220
  C      -0.929035      0.490010     -1.740525
  C       0.389238      0.296018     -2.260690
  H      -1.731093      0.940789     -2.314967
  C       1.390633      0.005925     -1.317521
  C       2.626283     -0.230596     -2.015588
  S       0.927926      0.299828     -3.862576
  C       2.519692     -0.101889     -3.364150
  H       1.596807      1.125304     -0.727138
  H       3.566855     -0.423832     -1.519914
  H       3.302201     -0.197810     -4.101472
  H      -0.590308     -3.293402     -0.321884
  H      -0.973153     -2.467640      2.244219
  H       1.353027     -1.499806      3.133357
  O       1.681215      2.355797      0.048766
  O       0.595678      1.028365      1.470523
  C       1.121130      2.139629      1.137357
  C       1.071666      3.236667      2.162335
  H       0.994755      4.208980      1.682033
  H       2.002133      3.227404      2.732741
  H       0.249803      3.096512      2.859284
  H       3.218157     -1.842217      1.232495
  H       1.983294     -2.927615     -0.933328
39
Coordinates from ORCA-job reaction4-IEIP_ts_guess_scan_14-3_orca E -1288.393734049669
  Ir      0.625565     -0.729693      0.377468
  C       0.155539     -2.853260      0.323818
  C      -0.055986     -2.416009      1.679679
  C       2.165885     -2.063782      1.140718
  C       1.520677     -2.664677      0.008089
  C       1.181196     -1.946514      2.165271
  N      -1.074505      0.123846     -0.518682
  C      -2.334071      0.326130      0.210390
  C      -3.135496      1.527433     -0.269701
  H      -3.958376      1.699752      0.422189
  H      -3.582278      1.373552     -1.252921
  H      -2.533556      2.436154     -0.294718
  C      -3.159064     -0.955157      0.150805
  H      -2.035791      0.505571      1.244479
  H      -4.055426     -0.846907      0.760084
  H      -3.473793     -1.172407     -0.870645
  H      -2.607610     -1.814993      0.527245
  C      -0.929000      0.492124     -1.739180
  C       0.389180      0.296916     -2.260138
  H      -1.730554      0.945014     -2.312623
  C       1.390989      0.005112     -1.317875
  C       2.625897     -0.232058     -2.017195
  S       0.926753      0.301699     -3.862267
  C       2.518561     -0.101747     -3.365558
  H       1.596935      1.126206     -0.730976
  H       3.566575     -0.427101     -1.522409
  H       3.300463     -0.197447     -4.103545
  H      -0.584624     -3.296309     -0.326386
  H      -0.977681     -2.469937      2.238259
  H       1.344141     -1.500394      3.136157
  O       1.678538      2.357458      0.044024
  O       0.598196      1.027895      1.467925
  C       1.121792      2.139893      1.134068
  C       1.070464      3.237180      2.158602
  H       0.989981      4.209088      1.678031
  H       2.001858      3.230799      2.727519
  H       0.250085      3.094923      2.856858
  H       3.216755     -1.841032      1.241969
  H       1.991159     -2.928133     -0.928085
39
Coordinates from ORCA-job reaction4-IEIP_ts_guess_scan_14-3_orca E -1288.393734546316
  Ir      0.626331     -0.730376      0.376955
  C       0.159492     -2.854032      0.321159
  C      -0.058378     -2.417103      1.676378
  C       2.165154     -2.061478      1.146935
  C       1.525940     -2.663762      0.011836
  C       1.175651     -1.946047      2.167535
  N      -1.074488      0.123942     -0.517945
  C      -2.333818      0.325153      0.211752
  C      -3.134516      1.528221     -0.265111
  H      -3.957445      1.698972      0.427113
  H      -3.581106      1.377517     -1.248905
  H      -2.532091      2.436696     -0.287294
  C      -3.159342     -0.955614      0.148391
  H      -2.035320      0.501736      1.246258
  H      -4.055657     -0.848915      0.758024
  H      -3.474206     -1.169606     -0.873705
  H      -2.608201     -1.816898      0.521988
  C      -0.929662      0.493357     -1.738029
  C       0.388289      0.297570     -2.259845
  H      -1.731027      0.947574     -2.310683
  C       1.390814      0.005505     -1.318345
  C       2.624693     -0.233419     -2.019058
  S       0.924096      0.301428     -3.862424
  C       2.516046     -0.103844     -3.367331
  H       1.596176      1.127742     -0.734438
  H       3.565721     -0.429153     -1.525201
  H       3.296998     -0.200879     -4.106148
  H      -0.576910     -3.299034     -0.331953
  H      -0.982425     -2.472405      2.230941
  H       1.333577     -1.499889      3.139224
  O       1.677634      2.358787      0.040906
  O       0.599946      1.028219      1.465834
  C       1.121278      2.141013      1.131066
  C       1.071928      3.237331      2.156738
  H       0.990380      4.209687      1.677258
  H       2.004514      3.230560      2.723731
  H       0.253006      3.094329      2.856535
  H       3.215245     -1.837212      1.252814
  H       2.001050     -2.926484     -0.922216
39
Coordinates from ORCA-job reaction4-IEIP_ts_guess_scan_14-3_orca E -1288.393735300977
  Ir      0.626908     -0.730012      0.376894
  C       0.162994     -2.854328      0.318751
  C      -0.059676     -2.418250      1.673602
  C       2.164874     -2.059272      1.151320
  C       1.530260     -2.662330      0.014256
  C       1.171785     -1.945921      2.169014
  N      -1.074726      0.124125     -0.517127
  C      -2.334142      0.324435      0.212578
  C      -3.134069      1.529007     -0.261771
  H      -3.957305      1.698569      0.430367
  H      -3.580161      1.380908     -1.246182
  H      -2.531108      2.437179     -0.281494
  C      -3.160234     -0.955843      0.146084
  H      -2.035816      0.498522      1.247569
  H      -4.056303     -0.850593      0.756329
  H      -3.475523     -1.166902     -0.876497
  H      -2.609177     -1.818357      0.516963
  C      -0.930496      0.493322     -1.737193
  C       0.387134      0.297636     -2.259826
  H      -1.732082      0.947676     -2.309460
  C       1.390346      0.006156     -1.318753
  C       2.623453     -0.234283     -2.020499
  S       0.921272      0.299520     -3.862872
  C       2.513590     -0.106386     -3.368732
  H       1.595336      1.128638     -0.735847
  H       3.564942     -0.429450     -1.527286
  H       3.293759     -0.204875     -4.108187
  H      -0.570490     -3.300807     -0.336615
  H      -0.985432     -2.474979      2.225173
  H       1.325808     -1.500089      3.141477
  O       1.679609      2.359014      0.040258
  O       0.601885      1.028706      1.465432
  C       1.123388      2.141325      1.130475
  C       1.073477      3.238035      2.155752
  H       0.991963      4.210255      1.675989
  H       2.005858      3.231644      2.723091
  H       0.254313      3.095097      2.855286
  H       3.214349     -1.833838      1.260742
  H       2.008808     -2.924066     -0.918320
39
Coordinates from ORCA-job reaction4-IEIP_ts_guess_scan_14-3_orca E -1288.393736613373
  Ir      0.627487     -0.729020      0.377076
  C       0.168404     -2.854562      0.314822
  C      -0.061617     -2.420549      1.669264
  C       2.164303     -2.055681      1.157985
  C       1.536813     -2.659597      0.017779
  C       1.165799     -1.946179      2.171298
  N      -1.075051      0.123978     -0.515958
  C      -2.334518      0.323437      0.213725
  C      -3.132874      1.530429     -0.257081
  H      -3.956438      1.698777      0.434938
  H      -3.578411      1.386112     -1.242307
  H      -2.528677      2.437836     -0.273535
  C      -3.161831     -0.955885      0.143145
  H      -2.036399      0.493894      1.249403
  H      -4.057063     -0.852575      0.754933
  H      -3.478500     -1.162545     -0.879923
  H      -2.610762     -1.820297      0.509640
  C      -0.931930      0.491842     -1.736361
  C       0.385098      0.296753     -2.260261
  H      -1.734274      0.945436     -2.308244
  C       1.389199      0.006479     -1.319637
  C       2.621558     -0.235249     -2.022509
  S       0.917256      0.296381     -3.863870
  C       2.510254     -0.109451     -3.370669
  H       1.593875      1.129273     -0.737552
  H       3.563679     -0.429136     -1.529983
  H       3.289563     -0.209363     -4.110848
  H      -0.560561     -3.303067     -0.344164
  H      -0.990026     -2.479606      2.216129
  H       1.313769     -1.501096      3.145041
  O       1.680973      2.359210      0.038937
  O       0.604461      1.029370      1.465516
  C       1.125741      2.141701      1.129708
  C       1.076206      3.239139      2.154340
  H       0.994662      4.211115      1.674103
  H       2.008687      3.233102      2.721521
  H       0.257164      3.096604      2.854112
  H       3.212805     -1.828484      1.272913
  H       2.020547     -2.919336     -0.912683
39
Coordinates from ORCA-job reaction4-IEIP_ts_guess_scan_14-3_orca E -1288.393738932186
  Ir      0.627933     -0.728633      0.377421
  C       0.173390     -2.855074      0.311207
  C      -0.063368     -2.423343      1.665374
  C       2.163776     -2.052847      1.164307
  C       1.542860     -2.657327      0.021102
  C       1.160346     -1.947106      2.173615
  N      -1.075284      0.123209     -0.515002
  C      -2.334569      0.322523      0.215010
  C      -3.130834      1.532183     -0.252447
  H      -3.954346      1.699981      0.439757
  H      -3.576313      1.391569     -1.238236
  H      -2.524931      2.438488     -0.266184
  C      -3.163726     -0.955435      0.140887
  H      -2.036420      0.489567      1.251237
  H      -4.057895     -0.853384      0.754428
  H      -3.482165     -1.157868     -0.882487
  H      -2.613020     -1.821889      0.503143
  C      -0.933293      0.489669     -1.735916
  C       0.383217      0.294940     -2.260864
  H      -1.736469      0.942160     -2.307550
  C       1.387959      0.005571     -1.320609
  C       2.620107     -0.235845     -2.024069
  S       0.914394      0.294181     -3.864766
  C       2.508006     -0.110720     -3.372157
  H       1.592372      1.128942     -0.739182
  H       3.562639     -0.428753     -1.531930
  H       3.286927     -0.210577     -4.112752
  H      -0.551409     -3.305178     -0.351253
  H      -0.994286     -2.484433      2.207749
  H       1.302753     -1.502790      3.148531
  O       1.679443      2.359539      0.036262
  O       0.606589      1.029750      1.465691
  C       1.126559      2.142101      1.128293
  C       1.078256      3.240272      2.152269
  H       0.995748      4.211916      1.671546
  H       2.011514      3.234893      2.718176
  H       0.260233      3.097917      2.853281
  H       3.211358     -1.824068      1.284355
  H       2.031320     -2.914910     -0.907495
39
Coordinates from ORCA-job reaction4-IEIP_ts_guess_scan_14-3_orca E -1288.393742256519
  Ir      0.628528     -0.728733      0.377958
  C       0.180197     -2.855944      0.306069
  C      -0.065895     -2.427561      1.659879
  C       2.162975     -2.049450      1.173210
  C       1.551189     -2.654451      0.025730
  C       1.152747     -1.948901      2.176888
  N      -1.075379      0.121577     -0.513744
  C      -2.334089      0.321301      0.217244
  C      -3.126872      1.535103     -0.245361
  H      -3.949856      1.702658      0.447540
  H      -3.572852      1.399915     -1.231683
  H      -2.518089      2.439511     -0.255634
  C      -3.166447     -0.954302      0.138359
  H      -2.035555      0.483551      1.254090
  H      -4.058899     -0.853514      0.754597
  H      -3.487769     -1.150702     -0.885297
  H      -2.616632     -1.823877      0.494552
  C      -0.935155      0.485969     -1.735569
  C       0.380714      0.291351     -2.261826
  H      -1.739566      0.936623     -2.306943
  C       1.386234      0.003081     -1.322138
  C       2.618489     -0.236498     -2.025987
  S       0.911350      0.291723     -3.865949
  C       2.505730     -0.111070     -3.374002
  H       1.590234      1.127471     -0.741568
  H       3.561417     -0.428375     -1.534187
  H       3.284467     -0.209590     -4.114967
  H      -0.538826     -3.307915     -0.361366
  H      -1.000381     -2.491200      2.195806
  H       1.287465     -1.505726      3.153401
  O       1.674968      2.359903      0.031216
  O       0.609038      1.029957      1.465704
  C       1.126195      2.142655      1.125445
  C       1.080014      3.241840      2.148454
  H       0.995608      4.212949      1.667008
  H       2.014723      3.237538      2.711967
  H       0.263923      3.099611      2.851747
  H       3.209243     -1.818550      1.300417
  H       2.046183     -2.908739     -0.900322
39
Coordinates from ORCA-job reaction4-IEIP_ts_guess_scan_14-3_orca E -1288.393743896287
  Ir      0.628865     -0.729184      0.378248
  C       0.183188     -2.856389      0.303766
  C      -0.066888     -2.429462      1.657420
  C       2.162749     -2.048327      1.177144
  C       1.554883     -2.653360      0.027714
  C       1.149627     -1.949912      2.178308
  N      -1.075319      0.120442     -0.513139
  C      -2.333584      0.320696      0.218617
  C      -3.124285      1.536804     -0.241528
  H      -3.946749      1.704542      0.451969
  H      -3.570823      1.404471     -1.227984
  H      -2.513806      2.440078     -0.250233
  C      -3.167922     -0.953444      0.137356
  H      -2.034698      0.480586      1.255689
  H      -4.059540     -0.852908      0.754848
  H      -3.490689     -1.146829     -0.886417
  H      -2.618938     -1.824745      0.490656
  C      -0.936013      0.483795     -1.735531
  C       0.379660      0.288910     -2.262262
  H      -1.741031      0.933361     -2.306890
  C       1.385567      0.001105     -1.322951
  C       2.618086     -0.236687     -2.026714
  S       0.910548      0.290788     -3.866412
  C       2.505199     -0.110448     -3.374740
  H       1.589366      1.125957     -0.742509
  H       3.561121     -0.428245     -1.534992
  H       3.284048     -0.207600     -4.115765
  H      -0.533367     -3.308927     -0.365921
  H      -1.002974     -2.493980      2.190456
  H       1.281082     -1.507327      3.155524
  O       1.672034      2.359710      0.028392
  O       0.609621      1.029920      1.465569
  C       1.125149      2.142906      1.123680
  C       1.079814      3.242633      2.146080
  H       0.994759      4.213443      1.664156
  H       2.015059      3.238691      2.708708
  H       0.264448      3.100653      2.850260
  H       3.208438     -1.816541      1.307462
  H       2.052684     -2.905988     -0.897291
39
Coordinates from ORCA-job reaction4-IEIP_ts_guess_scan_14-3_orca E -1288.393743986177
  Ir      0.629035     -0.729483      0.378308
  C       0.183559     -2.856418      0.303421
  C      -0.067004     -2.429528      1.657023
  C       2.162833     -2.048437      1.177735
  C       1.555415     -2.653340      0.027975
  C       1.149340     -1.950062      2.178480
  N      -1.075182      0.120070     -0.512935
  C      -2.333273      0.320497      0.219150
  C      -3.123336      1.537316     -0.240264
  H      -3.945553      1.705149      0.453518
  H      -3.570142      1.405869     -1.226713
  H      -2.512356      2.440253     -0.248537
  C      -3.168215     -0.953172      0.137113
  H      -2.034232      0.479755      1.256249
  H      -4.059751     -0.852583      0.754726
  H      -3.491178     -1.145778     -0.886742
  H      -2.619657     -1.824996      0.489814
  C      -0.936130      0.483202     -1.735501
  C       0.379554      0.288062     -2.262255
  H      -1.741266      0.932463     -2.306914
  C       1.385620      0.000258     -1.323179
  C       2.618223     -0.236726     -2.026858
  S       0.910664      0.290731     -3.866429
  C       2.505283     -0.109963     -3.374917
  H       1.589488      1.125079     -0.742468
  H       3.561267     -0.428366     -1.535195
  H       3.284212     -0.206521     -4.115936
  H      -0.532721     -3.308846     -0.366633
  H      -1.003350     -2.493932      2.189627
  H       1.280451     -1.507654      3.155821
  O       1.671601      2.359265      0.027797
  O       0.609252      1.029895      1.465334
  C       1.124562      2.142941      1.123080
  C       1.078926      3.242867      2.145188
  H       0.994480      4.213605      1.663013
  H       2.013816      3.238649      2.708406
  H       0.263094      3.101287      2.848903
  H       3.208457     -1.816581      1.308457
  H       2.053583     -2.905639     -0.896922
