39
Generated by autodE on: 2023-08-15. E = -1288.395300 Ha
Ir    0.62587  -0.73385   0.38073
C     0.18637  -2.85919   0.30601
C    -0.08233  -2.43561   1.65770
C     2.15165  -2.04594   1.20633
C     1.56247  -2.65386   0.04997
C     1.12383  -1.95225   2.19484
N    -1.07877   0.11403  -0.51010
C    -2.33907   0.30498   0.22094
C    -3.12661   1.52905  -0.22337
H    -3.95104   1.68759   0.46997
H    -3.57003   1.41295  -1.21326
H    -2.51451   2.43123  -0.21632
C    -3.17469  -0.96665   0.11868
H    -2.04355   0.45002   1.26116
H    -4.06737  -0.87526   0.73613
H    -3.49582  -1.14375  -0.90855
H    -2.62698  -1.84409   0.45866
C    -0.93949   0.48619  -1.73013
C     0.37575   0.29728  -2.25911
H    -1.74582   0.93768  -2.29815
C     1.37878  -0.01175  -1.32565
C     2.61205  -0.23641  -2.03003
S     0.91130   0.33599  -3.86284
C     2.50257  -0.07829  -3.37591
H     1.59671   1.13816  -0.74439
H     3.55331  -0.44350  -1.54121
H     3.28361  -0.16066  -4.11645
H    -0.51878  -3.31593  -0.37284
H    -1.02589  -2.50197   2.17714
H     1.24049  -1.51001   3.17405
O     1.69094   2.34733   0.01048
O     0.61633   1.03674   1.45583
C     1.14058   2.14096   1.10951
C     1.10848   3.25043   2.12069
H     1.01389   4.21633   1.63058
H     2.05250   3.25455   2.66849
H     0.30393   3.11319   2.83790
H     3.19489  -1.81187   1.35138
H     2.07382  -2.90466  -0.86812
