39
Generated by autodE on: 2023-08-15. E = -1288.403808 Ha
Ir    0.59772  -0.74198   0.47190
C     0.11187  -2.84504   0.38244
C    -0.10987  -2.37307   1.72498
C     2.12967  -2.08698   1.21792
C     1.47928  -2.67125   0.07586
C     1.14385  -1.93310   2.22616
N    -1.06169   0.10121  -0.50301
C    -2.34827   0.29248   0.18709
C    -3.13462   1.49982  -0.30454
H    -3.97358   1.67087   0.36819
H    -3.55802   1.35560  -1.29939
H    -2.52857   2.40604  -0.30927
C    -3.17250  -0.98608   0.08872
H    -2.08801   0.46444   1.23258
H    -4.09081  -0.88280   0.66547
H    -3.44991  -1.19581  -0.94516
H    -2.63687  -1.85045   0.47806
C    -0.90347   0.44456  -1.72872
C     0.41201   0.30154  -2.27591
H    -1.72185   0.85183  -2.31470
C     1.48590   0.11883  -1.41618
C     2.67969  -0.10468  -2.15600
S     0.85132   0.24358  -3.92092
C     2.48260  -0.05489  -3.50561
H     1.66621   1.17407  -0.56380
H     3.65516  -0.24035  -1.71204
H     3.22262  -0.16184  -4.28424
H    -0.63119  -3.27124  -0.27569
H    -1.03483  -2.41334   2.27994
H     1.30581  -1.48552   3.19669
O     1.78515   2.25481   0.14885
O     0.55638   1.03116   1.54253
C     1.15786   2.09820   1.22159
C     1.13399   3.23041   2.20249
H     1.00982   4.18028   1.68695
H     2.09376   3.27017   2.72045
H     0.34991   3.10120   2.94282
H     3.18110  -1.86496   1.31511
H     1.95175  -2.92854  -0.86085
