! Opt PBEh-3c
%geom Constraints
{ B 0 20 2.6 C }
{ B 24 30 1.3571428571428572 C }
    end
end
%output 
xyzfile=True 
end 
%scf 
maxiter 250 
end
%output
Print[P_Hirshfeld] = 1
end
% maxcore
4000
*xyz 1 1
Ir   0.56467039  -0.74045470   0.50390140 
C    0.00808785  -2.81594070   0.36382747 
C    0.08847416  -2.37855666   1.73705636 
C    2.17552964  -2.15641281   0.79354190 
C    1.27384678  -2.64859446  -0.22430921 
C    1.45793106  -2.03019487   1.99473724 
N   -1.04036295   0.16055188  -0.50599195 
C   -2.32034642   0.49218595   0.14126259 
C   -3.13076159   1.53606805  -0.61022140 
H   -3.96747969   1.84698994   0.01379537 
H   -3.56058820   1.15490211  -1.53792679 
H   -2.54498474   2.42827428  -0.83371887 
C   -3.12409527  -0.78137179   0.37280629 
H   -2.04020327   0.90780780   1.11084838 
H   -4.04625199  -0.54039396   0.89944034 
H   -3.39473724  -1.25636087  -0.57116816 
H   -2.58408968  -1.50316008   0.98405648 
C   -0.82503484   0.36388155  -1.74865336 
C    0.52686476   0.15861689  -2.22087729 
H   -1.60627026   0.71348006  -2.41799294 
C    1.63658103   0.54922129  -1.48299152 
C    2.83349784   0.15474367  -2.14541734 
S    0.93756864  -0.60826234  -3.69530045 
C    2.60941317  -0.46718416  -3.33454537 
H    1.54423065   1.41753536  -0.64699758 
H    3.82460323   0.37472306  -1.77580215 
H    3.34069323  -0.83492599  -4.03852696 
H   -0.88194930  -3.16917443  -0.13679342 
H   -0.70278956  -2.41739487   2.47148071 
H    1.84508312  -1.65172372   2.92983002 
O    1.33396402   2.42187359   0.26289746 
O    0.53893411   0.90492857   1.69351541 
C    0.92581042   2.09418411   1.37712371 
C    0.88030837   3.08899373   2.50148377 
H    0.83712698   4.10380314   2.11551384 
H    1.79201445   2.99646618   3.09505263 
H    0.04066396   2.90629802   3.16865628 
H    3.22009409  -1.92232354   0.65004573 
H    1.53332303  -2.85390927  -1.25289850 
*
