39
Coordinates from ORCA-job reaction4-IEIP_ts_guess_scan_2-2_orca E -1288.398167688750
  Ir      0.585637     -0.720593      0.442665
  C       0.035300     -2.802220      0.316161
  C       0.135494     -2.358771      1.686822
  C       2.205733     -2.130552      0.708981
  C       1.291072     -2.633444     -0.291752
  C       1.506742     -2.003188      1.921205
  N      -1.047988      0.185411     -0.520125
  C      -2.314847      0.529154      0.143815
  C      -3.139838      1.556057     -0.614140
  H      -3.970145      1.873185      0.015232
  H      -3.579091      1.156223     -1.529616
  H      -2.561864      2.447684     -0.859391
  C      -3.110255     -0.741901      0.414534
  H      -2.015848      0.962646      1.099720
  H      -4.020137     -0.493219      0.958566
  H      -3.402274     -1.232645     -0.514898
  H      -2.554518     -1.452467      1.024812
  C      -0.833355      0.386842     -1.759252
  C       0.523029      0.137967     -2.204229
  H      -1.598502      0.755787     -2.436388
  C       1.627199      0.543500     -1.464912
  C       2.831399      0.097379     -2.082642
  S       0.947691     -0.718910     -3.620858
  C       2.617411     -0.585803     -3.237949
  H       1.535416      1.401581     -0.690506
  H       3.817905      0.324090     -1.705090
  H       3.353834     -1.004685     -3.907103
  H      -0.860969     -3.162353     -0.168157
  H      -0.643447     -2.397476      2.434361
  H       1.906163     -1.616892      2.847951
  O       1.249369      2.480726      0.267995
  O       0.547173      0.891455      1.669069
  C       0.881298      2.108983      1.375622
  C       0.814800      3.060957      2.538003
  H       0.745461      4.087324      2.187948
  H       1.729271      2.969962      3.127387
  H      -0.018566      2.836002      3.200533
  H       3.247199     -1.893601      0.548840
  H       1.536421     -2.845007     -1.322473
39
Coordinates from ORCA-job reaction4-IEIP_ts_guess_scan_2-2_orca E -1288.397317722276
  Ir      0.588223     -0.710560      0.435726
  C       0.049021     -2.796069      0.301926
  C       0.140776     -2.357501      1.674553
  C       2.214080     -2.114280      0.706705
  C       1.306627     -2.619072     -0.299584
  C       1.508694     -1.994167      1.915916
  N      -1.056472      0.188085     -0.527485
  C      -2.320697      0.534821      0.138690
  C      -3.151461      1.550647     -0.627737
  H      -3.980515      1.872409      0.000931
  H      -3.592549      1.139138     -1.537176
  H      -2.577021      2.441145     -0.885134
  C      -3.110513     -0.735854      0.426704
  H      -2.018609      0.979610      1.088413
  H      -4.018642     -0.484257      0.972303
  H      -3.405258     -1.237489     -0.496023
  H      -2.549442     -1.437946      1.041953
  C      -0.849407      0.376635     -1.771127
  C       0.507175      0.129206     -2.216469
  H      -1.619075      0.734166     -2.449294
  C       1.607000      0.556551     -1.482126
  C       2.814271      0.099532     -2.087179
  S       0.938024     -0.759109     -3.611241
  C       2.605856     -0.615531     -3.223811
  H       1.512385      1.460024     -0.752822
  H       3.799164      0.344375     -1.716931
  H       3.345682     -1.046426     -3.881378
  H      -0.842998     -3.159618     -0.187636
  H      -0.640955     -2.403905      2.418665
  H       1.901830     -1.608759      2.845705
  O       1.381232      2.451473      0.326497
  O       0.527296      0.894962      1.674081
  C       0.923151      2.098626      1.407106
  C       0.817381      3.054273      2.563441
  H       0.811853      4.082100      2.210785
  H       1.686444      2.928218      3.212068
  H      -0.066296      2.863176      3.168836
  H       3.255161     -1.872229      0.552378
  H       1.557952     -2.827208     -1.329492
39
Coordinates from ORCA-job reaction4-IEIP_ts_guess_scan_2-2_orca E -1288.398263807047
  Ir      0.592473     -0.725964      0.444320
  C       0.033727     -2.808143      0.328456
  C       0.131014     -2.360647      1.697741
  C       2.205466     -2.142705      0.725269
  C       1.292368     -2.647104     -0.276049
  C       1.502218     -2.007125      1.934334
  N      -1.045901      0.183624     -0.521587
  C      -2.311301      0.527072      0.143176
  C      -3.134528      1.554552     -0.615790
  H      -3.965561      1.872316      0.012291
  H      -3.572407      1.154901     -1.532064
  H      -2.555589      2.445772     -0.860325
  C      -3.106672     -0.744085      0.412998
  H      -2.011577      0.959713      1.099236
  H      -4.016159     -0.495623      0.957762
  H      -3.399353     -1.233832     -0.516745
  H      -2.550499     -1.455243      1.022287
  C      -0.833732      0.393654     -1.762409
  C       0.522324      0.150948     -2.216719
  H      -1.601322      0.769017     -2.433266
  C       1.628552      0.536343     -1.467421
  C       2.830102      0.094209     -2.095637
  S       0.942320     -0.685572     -3.646326
  C       2.612556     -0.570756     -3.260044
  H       1.549388      1.414700     -0.702235
  H       3.818173      0.314840     -1.718723
  H       3.346667     -0.980107     -3.937421
  H      -0.862077     -3.167448     -0.157309
  H      -0.649940     -2.395045      2.443267
  H       1.899892     -1.618238      2.860729
  O       1.244877      2.476951      0.269361
  O       0.544325      0.891821      1.672506
  C       0.878400      2.107963      1.379274
  C       0.810384      3.063356      2.538551
  H       0.739812      4.088687      2.185630
  H       1.724656      2.975211      3.128603
  H      -0.023001      2.839012      3.201091
  H       3.248609     -1.911766      0.568308
  H       1.540689     -2.866072     -1.304380
39
Coordinates from ORCA-job reaction4-IEIP_ts_guess_scan_2-2_orca E -1288.397716230834
  Ir      0.579361     -0.723614      0.451798
  C       0.021312     -2.805305      0.353785
  C       0.114721     -2.344916      1.718695
  C       2.191625     -2.135954      0.749546
  C       1.281434     -2.649833     -0.249226
  C       1.484954     -1.989143      1.955453
  N      -1.050238      0.172165     -0.525965
  C      -2.319574      0.511714      0.134888
  C      -3.147035      1.535265     -0.625016
  H      -3.980161      1.849206      0.002242
  H      -3.582457      1.133458     -1.541458
  H      -2.572142      2.429220     -0.869047
  C      -3.110784     -0.762109      0.404797
  H      -2.023938      0.946452      1.091262
  H      -4.022383     -0.516577      0.947424
  H      -3.399596     -1.254179     -0.524921
  H      -2.553112     -1.470271      1.016038
  C      -0.837471      0.381115     -1.765906
  C       0.518066      0.148511     -2.225611
  H      -1.606732      0.755476     -2.435084
  C       1.624972      0.515933     -1.469622
  C       2.828185      0.112417     -2.119268
  S       0.938481     -0.635833     -3.683850
  C       2.610829     -0.504505     -3.310174
  H       1.535259      1.339857     -0.652312
  H       3.815778      0.321978     -1.734670
  H       3.344949     -0.881125     -4.006390
  H      -0.873277     -3.168872     -0.131043
  H      -0.668458     -2.371594      2.462185
  H       1.879994     -1.591098      2.879081
  O       1.394480      2.451637      0.301223
  O       0.531463      0.904176      1.660847
  C       0.935874      2.103243      1.383716
  C       0.840107      3.065384      2.535321
  H       0.840556      4.091437      2.177590
  H       1.710081      2.936556      3.182173
  H      -0.043229      2.883160      3.143996
  H       3.235190     -1.906093      0.593218
  H       1.532285     -2.878154     -1.274969
39
Coordinates from ORCA-job reaction4-IEIP_ts_guess_scan_2-2_orca E -1288.398304874896
  Ir      0.586929     -0.720824      0.445716
  C       0.031993     -2.802706      0.331119
  C       0.125426     -2.353772      1.699815
  C       2.201531     -2.133340      0.731149
  C       1.291580     -2.640196     -0.271474
  C       1.495199     -1.997556      1.938610
  N      -1.045549      0.181990     -0.522008
  C      -2.313363      0.521560      0.141764
  C      -3.140168      1.548694     -0.614022
  H      -3.971958      1.862101      0.015268
  H      -3.577421      1.150327     -1.531095
  H      -2.564238      2.442499     -0.856174
  C      -3.106541     -0.751602      0.409022
  H      -2.015604      0.953068      1.098968
  H      -4.016996     -0.505945      0.953508
  H      -3.397457     -1.240464     -0.521734
  H      -2.549422     -1.462520      1.017517
  C      -0.833228      0.391247     -1.762183
  C       0.521365      0.150593     -2.219220
  H      -1.602230      0.763088     -2.433068
  C       1.628856      0.530801     -1.469866
  C       2.829728      0.091760     -2.100334
  S       0.939729     -0.672106     -3.656573
  C       2.610712     -0.560701     -3.271722
  H       1.550597      1.397331     -0.692817
  H       3.818038      0.303216     -1.718680
  H       3.343697     -0.967517     -3.951887
  H      -0.862292     -3.163603     -0.156253
  H      -0.657211     -2.388112      2.443542
  H       1.890158     -1.606594      2.865284
  O       1.288614      2.471088      0.278529
  O       0.535369      0.896239      1.668057
  C       0.892721      2.107026      1.380329
  C       0.819555      3.063164      2.538575
  H       0.772578      4.089612      2.185103
  H       1.721264      2.959482      3.145217
  H      -0.029517      2.852434      3.185571
  H       3.244709     -1.900807      0.576347
  H       1.542215     -2.859764     -1.299157
39
Coordinates from ORCA-job reaction4-IEIP_ts_guess_scan_2-2_orca E -1288.398313526629
  Ir      0.589901     -0.724594      0.447483
  C       0.030628     -2.805923      0.336271
  C       0.124503     -2.355414      1.704392
  C       2.201549     -2.140761      0.736187
  C       1.290811     -2.647175     -0.266111
  C       1.494931     -2.001472      1.943046
  N      -1.044991      0.180887     -0.522847
  C      -2.312671      0.520842      0.140733
  C      -3.137218      1.549799     -0.614911
  H      -3.969223      1.863662      0.013851
  H      -3.574002      1.153010     -1.532910
  H      -2.559832      2.443073     -0.855553
  C      -3.107788     -0.751654      0.405537
  H      -2.015179      0.950967      1.098618
  H      -4.018509     -0.505379      0.949251
  H      -3.398319     -1.239004     -0.526138
  H      -2.552385     -1.464085      1.013804
  C      -0.834341      0.389657     -1.763714
  C       0.519926      0.151439     -2.221741
  H      -1.604640      0.760510     -2.433843
  C       1.626031      0.529764     -1.469456
  C       2.828077      0.098360     -2.102958
  S       0.939755     -0.672124     -3.657930
  C       2.610679     -0.552064     -3.275857
  H       1.546233      1.399915     -0.695271
  H       3.815864      0.314580     -1.722696
  H       3.344700     -0.952096     -3.958903
  H      -0.864203     -3.165663     -0.150994
  H      -0.658407     -2.387270      2.447940
  H       1.890430     -1.610019      2.869293
  O       1.281295      2.473052      0.275959
  O       0.539995      0.896297      1.669914
  C       0.893429      2.107628      1.380295
  C       0.822065      3.064569      2.537963
  H       0.769334      4.090543      2.183937
  H       1.727133      2.964851      3.140258
  H      -0.022978      2.851034      3.189313
  H       3.245414     -1.911200      0.581762
  H       1.541373     -2.869352     -1.293232
39
Coordinates from ORCA-job reaction4-IEIP_ts_guess_scan_2-2_orca E -1288.398319717439
  Ir      0.589166     -0.723309      0.447617
  C       0.031654     -2.804687      0.335192
  C       0.124428     -2.354807      1.703517
  C       2.201818     -2.138036      0.736392
  C       1.292018     -2.644673     -0.266594
  C       1.494394     -1.999832      1.942955
  N      -1.044802      0.180501     -0.522637
  C      -2.312627      0.519890      0.141159
  C      -3.137199      1.549822     -0.613193
  H      -3.968969      1.863162      0.016150
  H      -3.574383      1.154174     -1.531485
  H      -2.559704      2.443242     -0.853019
  C      -3.108007     -0.752737      0.404616
  H      -2.015168      0.949011      1.099504
  H      -4.018783     -0.506842      0.948413
  H      -3.398444     -1.239149     -0.527578
  H      -2.552844     -1.465870      1.012283
  C      -0.834596      0.388984     -1.763522
  C       0.519437      0.151796     -2.222407
  H      -1.605480      0.759063     -2.433383
  C       1.625693      0.529493     -1.470125
  C       2.827681      0.096003     -2.102058
  S       0.939585     -0.666251     -3.661450
  C       2.610158     -0.554106     -3.275190
  H       1.546193      1.398203     -0.694352
  H       3.815427      0.308543     -1.719624
  H       3.343999     -0.956756     -3.956901
  H      -0.862658     -3.164778     -0.152769
  H      -0.658899     -2.387437      2.446583
  H       1.889106     -1.608387      2.869542
  O       1.282559      2.472624      0.275813
  O       0.538251      0.896794      1.669406
  C       0.892325      2.107815      1.379592
  C       0.822664      3.064762      2.537380
  H       0.771725      4.090868      2.183506
  H       1.727561      2.963367      3.139674
  H      -0.022742      2.852592      3.188715
  H       3.245620     -1.907643      0.582718
  H       1.543214     -2.866220     -1.293699
39
Coordinates from ORCA-job reaction4-IEIP_ts_guess_scan_2-2_orca E -1288.398322468355
  Ir      0.588300     -0.722474      0.448865
  C       0.032250     -2.803696      0.334301
  C       0.123433     -2.354925      1.703012
  C       2.201611     -2.136063      0.737888
  C       1.293067     -2.642427     -0.266330
  C       1.492901     -1.999224      1.943911
  N      -1.043887      0.179872     -0.521649
  C      -2.311863      0.519154      0.142195
  C      -3.135641      1.551054     -0.610447
  H      -3.966938      1.864261      0.019604
  H      -3.573564      1.157357     -1.529212
  H      -2.557289      2.444244     -0.849051
  C      -3.108339     -0.753247      0.403457
  H      -2.014416      0.946585      1.101290
  H      -4.019169     -0.507473      0.947230
  H      -3.398714     -1.238074     -0.529577
  H      -2.553991     -1.467743      1.010292
  C      -0.834149      0.387080     -1.762748
  C       0.519412      0.149902     -2.222511
  H      -1.605770      0.755452     -2.432662
  C       1.626016      0.527006     -1.470400
  C       2.827889      0.094313     -2.102774
  S       0.939277     -0.667162     -3.661993
  C       2.610096     -0.552835     -3.277599
  H       1.546751      1.395347     -0.694053
  H       3.815682      0.306143     -1.720079
  H       3.343704     -0.953778     -3.960574
  H      -0.861401     -3.163777     -0.154884
  H      -0.660656     -2.388361      2.445232
  H       1.886524     -1.608155      2.871120
  O       1.282877      2.470476      0.275260
  O       0.536673      0.896580      1.669910
  C       0.892029      2.106898      1.379291
  C       0.821916      3.065347      2.535839
  H       0.771357      4.091028      2.180708
  H       1.726506      2.964464      3.138689
  H      -0.023838      2.854132      3.187048
  H       3.245470     -1.905018      0.585525
  H       1.545256     -2.863075     -1.293384
