! Opt PBEh-3c
%geom Constraints
{ B 0 20 2.342857142857143 C }
{ B 24 30 1.3142857142857143 C }
    end
end
%output 
xyzfile=True 
end 
%scf 
maxiter 250 
end
%output
Print[P_Hirshfeld] = 1
end
% maxcore
4000
*xyz 1 1
Ir   0.59954439  -0.74024074   0.49610862 
C    0.07113804  -2.83117905   0.38159004 
C   -0.01669759  -2.36609810   1.74195158 
C    2.17140984  -2.13149581   1.04067197 
C    1.40054507  -2.66958309  -0.05502293 
C    1.30049860  -1.97638577   2.13885410 
N   -1.03678708   0.12055594  -0.50058027 
C   -2.31854253   0.37551514   0.17919829 
C   -3.09307446   1.55045146  -0.40048734 
H   -3.92537003   1.78527483   0.26159182 
H   -3.52600613   1.33309223  -1.37778434 
H   -2.47669135   2.44606993  -0.48072695 
C   -3.15569415  -0.89828574   0.18430195 
H   -2.04865748   0.62118650   1.20726351 
H   -4.07310782  -0.73589570   0.74849157 
H   -3.43520414  -1.19007590  -0.82892273 
H   -2.63056132  -1.73167746   0.64836555 
C   -0.86908196   0.38514899  -1.74305825 
C    0.45755142   0.22473518  -2.27174246 
H   -1.68324133   0.75069680  -2.36222273 
C    1.55934748   0.29021340  -1.42965746 
C    2.75076584  -0.00471112  -2.14795158 
S    0.86950596  -0.13818491  -3.88618966 
C    2.52706944  -0.24605746  -3.47094635 
H    1.58462183   1.25789955  -0.58392906 
H    3.74051940   0.01764132  -1.71567265 
H    3.25694704  -0.46112426  -4.23674266 
H   -0.74442395  -3.21794864  -0.21222077 
H   -0.88722748  -2.39867205   2.37995796 
H    1.56651595  -1.55772320   3.09917011 
O    1.54131037   2.34490052   0.17873406 
O    0.54952488   0.97185437   1.62559435 
C    1.02745903   2.10592053   1.28428680 
C    0.97705995   3.18368028   2.32628961 
H    0.92590122   4.16635726   1.86478409 
H    1.89429942   3.14452241   2.91705107 
H    0.14059481   3.04350217   3.00638519 
H    3.22855524  -1.91404648   1.03154041 
H    1.77905365  -2.91064332  -1.03758437 
*
