39
Generated by autodE on: 2023-08-14. E = -1288.391772 Ha
Ir    0.63517  -0.72439   0.37434
C     0.18192  -2.85346   0.29923
C    -0.04411  -2.42242   1.65513
C     2.17925  -2.05223   1.13825
C     1.54766  -2.65316  -0.00222
C     1.18544  -1.94796   2.15535
N    -1.06875   0.12772  -0.51660
C    -2.32305   0.34303   0.21752
C    -3.11382   1.55217  -0.26044
H    -3.93218   1.73402   0.43442
H    -3.56623   1.40225  -1.24169
H    -2.50210   2.45419  -0.28897
C    -3.15976  -0.93107   0.16214
H    -2.01825   0.51960   1.25006
H    -4.04866  -0.81703   0.78115
H    -3.48707  -1.14244  -0.85661
H    -2.61116  -1.79658   0.52991
C    -0.93098   0.47583  -1.74337
C     0.38502   0.27076  -2.26733
H    -1.73465   0.92127  -2.31976
C     1.39584   0.01500  -1.32115
C     2.62791  -0.23798  -2.02303
S     0.90988   0.22120  -3.87076
C     2.50978  -0.15740  -3.37309
H     1.57703   1.11161  -0.74598
H     3.57363  -0.40647  -1.52805
H     3.28573  -0.27413  -4.11430
H    -0.54911  -3.30025  -0.35860
H    -0.97062  -2.48406   2.20502
H     1.33599  -1.50562   3.12995
O     1.62694   2.38470   0.04571
O     0.60348   1.01896   1.47836
C     1.09537   2.14825   1.13977
C     1.03194   3.23138   2.18018
H     0.96543   4.21076   1.71326
H     1.95193   3.20959   2.76704
H     0.19875   3.08385   2.86244
H     3.22770  -1.82291   1.24938
H     2.02810  -2.90740  -0.93591
