39
Coordinates from ORCA-job reaction4-IEIP_ts_guess_scan_1-1_orca E -1288.397993224069
  Ir      0.581855     -0.723507      0.455849
  C       0.036999     -2.805796      0.315661
  C       0.134036     -2.366264      1.688355
  C       2.205258     -2.130642      0.716113
  C       1.293113     -2.631142     -0.288368
  C       1.504829     -2.010669      1.927852
  N      -1.044681      0.185803     -0.515237
  C      -2.312715      0.533339      0.144927
  C      -3.132644      1.561888     -0.616165
  H      -3.962764      1.883016      0.011447
  H      -3.572238      1.162764     -1.531795
  H      -2.550854      2.450928     -0.861743
  C      -3.111267     -0.735936      0.413999
  H      -2.015728      0.967351      1.101213
  H      -4.022363     -0.485341      0.955120
  H      -3.401293     -1.226326     -0.516266
  H      -2.559231     -1.447867      1.026174
  C      -0.828133      0.382707     -1.754620
  C       0.527607      0.131497     -2.201909
  H      -1.593340      0.750013     -2.432735
  C       1.637150      0.562125     -1.486439
  C       2.837648      0.113000     -2.107776
  S       0.943655     -0.749249     -3.607962
  C       2.615991     -0.596163     -3.246163
  H       1.541566      1.409011     -0.710048
  H       3.826445      0.354665     -1.745975
  H       3.348312     -1.023901     -3.914208
  H      -0.857642     -3.166226     -0.171393
  H      -0.646709     -2.408279      2.433949
  H       1.901847     -1.628330      2.857277
  O       1.221797      2.477224      0.271795
  O       0.551240      0.884261      1.684145
  C       0.870068      2.105591      1.383508
  C       0.807371      3.058118      2.545878
  H       0.723557      4.083141      2.195016
  H       1.729668      2.977433      3.124480
  H      -0.015642      2.826085      3.218811
  H       3.246082     -1.889273      0.558015
  H       1.540520     -2.835857     -1.320044
39
Coordinates from ORCA-job reaction4-IEIP_ts_guess_scan_1-1_orca E -1288.397348447414
  Ir      0.583885     -0.714653      0.449225
  C       0.047905     -2.800044      0.304665
  C       0.137426     -2.363438      1.678687
  C       2.211576     -2.116545      0.715499
  C       1.305863     -2.619302     -0.293623
  C       1.505404     -2.001389      1.924297
  N      -1.052233      0.187529     -0.522421
  C      -2.317795      0.537928      0.139831
  C      -3.143808      1.555276     -0.629621
  H      -3.972990      1.880478     -0.002887
  H      -3.584697      1.144314     -1.539402
  H      -2.565848      2.443501     -0.886956
  C      -3.110769     -0.731054      0.426235
  H      -2.017731      0.982994      1.090064
  H      -4.020067     -0.477655      0.969053
  H      -3.403659     -1.232475     -0.497208
  H      -2.553057     -1.434251      1.043398
  C      -0.842406      0.373437     -1.765855
  C       0.513514      0.124000     -2.214172
  H      -1.611632      0.731209     -2.444503
  C       1.619478      0.571969     -1.502987
  C       2.822616      0.114566     -2.114462
  S       0.934762     -0.781914     -3.602198
  C       2.605716     -0.618766     -3.238067
  H       1.520745      1.457862     -0.764091
  H       3.809964      0.371451     -1.759360
  H       3.340937     -1.054733     -3.897447
  H      -0.843025     -3.163515     -0.186878
  H      -0.645875     -2.411297      2.421175
  H       1.896860     -1.618933      2.856013
  O       1.354404      2.452227      0.327201
  O       0.532079      0.888189      1.687048
  C       0.913017      2.096690      1.412568
  C       0.808974      3.051754      2.569738
  H       0.788050      4.079051      2.216077
  H       1.686584      2.936321      3.208756
  H      -0.065657      2.851655      3.185271
  H       3.252125     -1.871183      0.562354
  H       1.558736     -2.822064     -1.324278
39
Coordinates from ORCA-job reaction4-IEIP_ts_guess_scan_1-1_orca E -1288.398076031043
  Ir      0.588549     -0.729530      0.455769
  C       0.031847     -2.811276      0.329717
  C       0.127714     -2.365443      1.700317
  C       2.202708     -2.145144      0.731609
  C       1.290732     -2.647224     -0.272152
  C       1.499298     -2.013882      1.940575
  N      -1.041920      0.183543     -0.517211
  C      -2.308314      0.530906      0.144178
  C      -3.128148      1.558304     -0.618495
  H      -3.959201      1.879565      0.007771
  H      -3.565881      1.157497     -1.534326
  H      -2.546611      2.447435     -0.864430
  C      -3.105939     -0.738605      0.414923
  H      -2.010028      0.965157      1.099964
  H      -4.016194     -0.488053      0.957445
  H      -3.397406     -1.229738     -0.514471
  H      -2.551983     -1.449502      1.026649
  C      -0.827404      0.389725     -1.758121
  C       0.528168      0.144892     -2.214522
  H      -1.594623      0.764056     -2.430052
  C       1.639909      0.556009     -1.488713
  C       2.837949      0.111503     -2.120549
  S       0.939793     -0.714696     -3.634476
  C       2.612921     -0.576763     -3.270161
  H       1.554837      1.421218     -0.719859
  H       3.828168      0.347206     -1.758838
  H       3.343113     -0.993162     -3.947467
  H      -0.863255     -3.170105     -0.157628
  H      -0.654486     -2.400866      2.444606
  H       1.895866     -1.627836      2.868626
  O       1.226166      2.475638      0.273882
  O       0.549230      0.884974      1.683584
  C       0.871065      2.104942      1.385696
  C       0.801806      3.059331      2.545899
  H       0.719595      4.083893      2.193222
  H       1.720805      2.979839      3.129789
  H      -0.025011      2.827774      3.214161
  H       3.245359     -1.911330      0.575162
  H       1.540175     -2.861063     -1.301333
39
Coordinates from ORCA-job reaction4-IEIP_ts_guess_scan_1-1_orca E -1288.397867005885
  Ir      0.578941     -0.725190      0.460690
  C       0.026714     -2.807043      0.342177
  C       0.118283     -2.355015      1.710712
  C       2.195135     -2.135302      0.745758
  C       1.286636     -2.643287     -0.257866
  C       1.488400     -2.000106      1.952528
  N      -1.044728      0.177178     -0.519717
  C      -2.314161      0.521827      0.138772
  C      -3.137568      1.545960     -0.624612
  H      -3.970083      1.864321      0.001218
  H      -3.573709      1.143249     -1.540312
  H      -2.559362      2.437248     -0.870535
  C      -3.108808     -0.749452      0.410353
  H      -2.018837      0.958123      1.094541
  H      -4.020602     -0.500664      0.951156
  H      -3.397463     -1.242788     -0.518752
  H      -2.553916     -1.457863      1.023916
  C      -0.829569      0.381122     -1.759816
  C       0.525237      0.141283     -2.219533
  H      -1.597945      0.753125     -2.431466
  C       1.638130      0.542735     -1.491095
  C       2.836524      0.120341     -2.136290
  S       0.935836     -0.687460     -3.657495
  C       2.610384     -0.541626     -3.301295
  H       1.547378      1.370137     -0.686938
  H       3.826775      0.346888     -1.768691
  H       3.339757     -0.942138     -3.989092
  H      -0.866688     -3.169286     -0.145770
  H      -0.665837     -2.387920      2.453086
  H       1.881946     -1.608935      2.879723
  O       1.323621      2.461635      0.295871
  O       0.537265      0.893223      1.677137
  C       0.905070      2.103050      1.389744
  C       0.820751      3.059866      2.546946
  H       0.787246      4.086356      2.192021
  H       1.712060      2.950008      3.167733
  H      -0.039889      2.856387      3.180861
  H       3.237757     -1.899988      0.590804
  H       1.538694     -2.860810     -1.285732
39
Coordinates from ORCA-job reaction4-IEIP_ts_guess_scan_1-1_orca E -1288.398097507585
  Ir      0.584246     -0.724200      0.455855
  C       0.032341     -2.805553      0.327191
  C       0.125060     -2.360880      1.698034
  C       2.201017     -2.135541      0.732218
  C       1.291704     -2.638338     -0.273321
  C       1.495303     -2.006773      1.940326
  N      -1.041322      0.183689     -0.517112
  C      -2.309596      0.528329      0.143694
  C      -3.132911      1.554876     -0.616556
  H      -3.964456      1.872601      0.010873
  H      -3.570355      1.154498     -1.532653
  H      -2.554248      2.446229     -0.861179
  C      -3.105530     -0.742509      0.413683
  H      -2.012575      0.962348      1.099991
  H      -4.016383     -0.493630      0.956023
  H      -3.395896     -1.233688     -0.516032
  H      -2.550798     -1.452745      1.025233
  C      -0.826686      0.387839     -1.757353
  C       0.527608      0.143491     -2.214839
  H      -1.594937      0.757923     -2.430197
  C       1.640126      0.554364     -1.490776
  C       2.837832      0.108943     -2.121398
  S       0.938300     -0.711830     -3.636923
  C       2.611823     -0.577232     -3.272287
  H       1.555014      1.410793     -0.714412
  H       3.828189      0.337634     -1.755449
  H       3.341254     -0.997435     -3.948124
  H      -0.861437     -3.165361     -0.161869
  H      -0.658287     -2.398085      2.441004
  H       1.889645     -1.620357      2.869169
  O       1.251703      2.472676      0.279447
  O       0.541688      0.887397      1.680517
  C       0.877123      2.104422      1.385968
  C       0.807342      3.058274      2.546572
  H       0.740985      4.084139      2.194482
  H       1.719229      2.967045      3.139858
  H      -0.029085      2.835672      3.205963
  H       3.243482     -1.899338      0.577636
  H       1.542856     -2.850498     -1.302517
39
Coordinates from ORCA-job reaction4-IEIP_ts_guess_scan_1-1_orca E -1288.398099581124
  Ir      0.586841     -0.727937      0.457644
  C       0.030271     -2.808758      0.333372
  C       0.124036     -2.361941      1.703482
  C       2.200583     -2.143054      0.737269
  C       1.290063     -2.645704     -0.267421
  C       1.495107     -2.010234      1.945019
  N      -1.041278      0.182521     -0.517783
  C      -2.309433      0.527595      0.142561
  C      -3.130828      1.554785     -0.618758
  H      -3.962946      1.873119      0.007581
  H      -3.567237      1.154735     -1.535518
  H      -2.551125      2.445678     -0.862605
  C      -3.106638     -0.742725      0.411373
  H      -2.012802      0.961210      1.099137
  H      -4.017798     -0.493153      0.952825
  H      -3.396523     -1.233449     -0.518739
  H      -2.553133     -1.453573      1.023345
  C      -0.827565      0.387242     -1.758532
  C       0.526592      0.144488     -2.217132
  H      -1.596621      0.757488     -2.430565
  C       1.638607      0.552104     -1.490243
  C       2.836726      0.114446     -2.125732
  S       0.937510     -0.710394     -3.639318
  C       2.611276     -0.566522     -3.279821
  H       1.552995      1.410450     -0.714771
  H       3.826867      0.347566     -1.762092
  H       3.341061     -0.977903     -3.960659
  H      -0.864285     -3.167494     -0.155092
  H      -0.659259     -2.396393      2.446638
  H       1.890395     -1.622981      2.873120
  O       1.255369      2.472698      0.280415
  O       0.545634      0.887972      1.682174
  C       0.883227      2.104319      1.387778
  C       0.808449      3.060056      2.546492
  H       0.740317      4.085186      2.192588
  H       1.719286      2.971989      3.141843
  H      -0.028829      2.836510      3.204487
  H       3.243667     -1.909914      0.582445
  H       1.540792     -2.860837     -1.296066
39
Coordinates from ORCA-job reaction4-IEIP_ts_guess_scan_1-1_orca E -1288.398106167041
  Ir      0.585717     -0.726147      0.457287
  C       0.031370     -2.807121      0.331654
  C       0.124235     -2.361017      1.701994
  C       2.200851     -2.139487      0.736449
  C       1.291163     -2.642440     -0.268787
  C       1.494836     -2.008062      1.944079
  N      -1.041559      0.182566     -0.517782
  C      -2.309993      0.526903      0.142612
  C      -3.132093      1.554064     -0.618046
  H      -3.964216      1.871687      0.008654
  H      -3.568589      1.154256     -1.534860
  H      -2.552912      2.445370     -0.861614
  C      -3.106713     -0.743807      0.411051
  H      -2.013533      0.960309      1.099341
  H      -4.017993     -0.494745      0.952542
  H      -3.396362     -1.234387     -0.519209
  H      -2.552976     -1.454622      1.022847
  C      -0.827832      0.387197     -1.758380
  C       0.526249      0.145034     -2.217270
  H      -1.597104      0.756837     -2.430454
  C       1.638434      0.552791     -1.490810
  C       2.836461      0.112111     -2.124162
  S       0.937342     -0.705902     -3.641630
  C       2.610848     -0.570135     -3.277516
  H       1.553222      1.409411     -0.713735
  H       3.826639      0.341681     -1.758354
  H       3.340476     -0.985398     -3.956175
  H      -0.862701     -3.166374     -0.157322
  H      -0.659284     -2.396546      2.444858
  H       1.889453     -1.620843      2.872480
  O       1.256768      2.472722      0.280665
  O       0.543065      0.888692      1.681365
  C       0.880876      2.104956      1.387004
  C       0.810177      3.059745      2.546788
  H       0.745310      4.085450      2.193978
  H       1.721066      2.967983      3.141533
  H      -0.027446      2.838335      3.205069
  H       3.243760     -1.905186      0.582109
  H       1.542357     -2.856691     -1.297513
39
Coordinates from ORCA-job reaction4-IEIP_ts_guess_scan_1-1_orca E -1288.398106436319
  Ir      0.585082     -0.725459      0.457638
  C       0.031579     -2.806209      0.330402
  C       0.123756     -2.361065      1.701039
  C       2.200657     -2.138155      0.736331
  C       1.291524     -2.640682     -0.269579
  C       1.494112     -2.007784      1.943801
  N      -1.040878      0.182574     -0.517177
  C      -2.309359      0.527001      0.143292
  C      -3.131513      1.554673     -0.616693
  H      -3.963366      1.872196      0.010427
  H      -3.568461      1.155387     -1.533507
  H      -2.552247      2.445972     -0.860073
  C      -3.106386     -0.743583      0.411423
  H      -2.012754      0.960029      1.100148
  H      -4.017621     -0.494429      0.952961
  H      -3.396125     -1.233876     -0.518959
  H      -2.552854     -1.454694      1.023061
  C      -0.827252      0.386264     -1.757835
  C       0.526577      0.143788     -2.216875
  H      -1.596766      0.754829     -2.430180
  C       1.638944      0.551874     -1.490894
  C       2.836884      0.111156     -2.124168
  S       0.937443     -0.708368     -3.640450
  C       2.611099     -0.570455     -3.277931
  H       1.553967      1.408399     -0.713785
  H       3.827088      0.340659     -1.758382
  H       3.340573     -0.985401     -3.956957
  H      -0.862210     -3.165299     -0.159211
  H      -0.660060     -2.397252      2.443555
  H       1.888272     -1.620978      2.872568
  O       1.256402      2.471658      0.280339
  O       0.541814      0.888288      1.681363
  C       0.880563      2.104182      1.386826
  C       0.809094      3.059637      2.546032
  H       0.744379      4.085147      2.192644
  H       1.719638      2.968193      3.141354
  H      -0.028896      2.838540      3.203969
  H       3.243569     -1.903423      0.582608
  H       1.543102     -2.854144     -1.298382
