39
Coordinates from ORCA-job reaction4-IEIP_ts_guess_scan_1-2_orca E -1288.397509118255
  Ir      0.580187     -0.724714      0.458233
  C       0.033275     -2.805726      0.318140
  C       0.131509     -2.367045      1.690998
  C       2.202446     -2.133204      0.717750
  C       1.289318     -2.631844     -0.286816
  C       1.502915     -2.012961      1.929935
  N      -1.045442      0.184425     -0.514688
  C      -2.314396      0.530693      0.144469
  C      -3.135377      1.557540     -0.617873
  H      -3.966861      1.877282      0.008597
  H      -3.572763      1.156773     -1.533820
  H      -2.554981      2.447542     -0.863251
  C      -3.111982     -0.739215      0.414078
  H      -2.018514      0.965346      1.100822
  H      -4.023821     -0.489025      0.954111
  H      -3.400697     -1.231212     -0.515734
  H      -2.559389     -1.449425      1.027725
  C      -0.827989      0.382490     -1.753913
  C       0.528056      0.134671     -2.201204
  H      -1.593524      0.748803     -2.432213
  C       1.636732      0.562219     -1.482513
  C       2.837530      0.116577     -2.105815
  S       0.945062     -0.738002     -3.612237
  C       2.616938     -0.586376     -3.248331
  H       1.540377      1.410020     -0.700849
  H       3.826139      0.356316     -1.742142
  H       3.349964     -1.010072     -3.918188
  H      -0.862020     -3.164635     -0.168859
  H      -0.648727     -2.409228      2.437112
  H       1.901008     -1.631366      2.859194
  O       1.237502      2.472784      0.270696
  O       0.549160      0.886750      1.682393
  C       0.877105      2.104971      1.381585
  C       0.814117      3.060731      2.540999
  H       0.739676      4.085563      2.187511
  H       1.732200      2.974781      3.125519
  H      -0.014738      2.835755      3.209151
  H       3.243367     -1.892684      0.558923
  H       1.536010     -2.836106     -1.318756
39
Coordinates from ORCA-job reaction4-IEIP_ts_guess_scan_1-2_orca E -1288.396777860807
  Ir      0.582078     -0.715214      0.450999
  C       0.044942     -2.799617      0.305244
  C       0.135612     -2.364753      1.679656
  C       2.209279     -2.118024      0.715303
  C       1.302620     -2.618757     -0.293967
  C       1.504029     -2.003731      1.924712
  N      -1.053181      0.186814     -0.521834
  C      -2.319651      0.535730      0.139561
  C      -3.146889      1.551446     -0.630818
  H      -3.977188      1.875294     -0.004883
  H      -3.586076      1.139118     -1.540784
  H      -2.570401      2.440639     -0.888101
  C      -3.111370     -0.734001      0.426423
  H      -2.020667      0.981522      1.089811
  H      -4.021441     -0.481209      0.968221
  H      -3.402874     -1.236804     -0.496701
  H      -2.553170     -1.435670      1.044867
  C      -0.842510      0.373394     -1.765181
  C       0.513788      0.126895     -2.213006
  H      -1.612089      0.729522     -2.444307
  C       1.618549      0.573750     -1.499201
  C       2.822224      0.117411     -2.110445
  S       0.936589     -0.774856     -3.603479
  C       2.606895     -0.612867     -3.236441
  H       1.519191      1.464045     -0.758125
  H       3.809245      0.373171     -1.753554
  H       3.343107     -1.046890     -3.896015
  H      -0.846565     -3.161694     -0.186302
  H      -0.647086     -2.413562      2.422711
  H       1.896500     -1.622606      2.856537
  O       1.365986      2.446917      0.326122
  O       0.530054      0.890466      1.685972
  C       0.918407      2.095766      1.411074
  C       0.816013      3.054313      2.565250
  H       0.803036      4.080936      2.209297
  H       1.690263      2.934625      3.208090
  H      -0.062379      2.860984      3.177586
  H       3.249813     -1.872967      0.561512
  H       1.554684     -2.820346     -1.325063
39
Coordinates from ORCA-job reaction4-IEIP_ts_guess_scan_1-2_orca E -1288.397588820097
  Ir      0.586418     -0.729907      0.458013
  C       0.029512     -2.810940      0.329863
  C       0.126110     -2.367334      1.701006
  C       2.200669     -2.145899      0.731448
  C       1.288075     -2.646024     -0.272673
  C       1.497904     -2.016303      1.940989
  N      -1.042719      0.182889     -0.516382
  C      -2.310076      0.528830      0.144026
  C      -3.130859      1.555001     -0.619360
  H      -3.962873      1.875074      0.006235
  H      -3.567233      1.153308     -1.535434
  H      -2.550567      2.444997     -0.865097
  C      -3.106605     -0.741377      0.414795
  H      -2.012947      0.963673      1.099923
  H      -4.017714     -0.491423      0.956163
  H      -3.396548     -1.233511     -0.514548
  H      -2.552546     -1.451169      1.027699
  C      -0.827217      0.389803     -1.757126
  C       0.528669      0.147551     -2.213164
  H      -1.594749      0.762744     -2.429488
  C       1.639533      0.556663     -1.484837
  C       2.837852      0.112928     -2.116674
  S       0.941349     -0.707439     -3.635791
  C       2.613971     -0.571388     -3.268983
  H       1.554604      1.425141     -0.712126
  H       3.827889      0.346619     -1.753099
  H       3.344884     -0.985841     -3.946728
  H      -0.865948     -3.168617     -0.157687
  H      -0.655602     -2.404251      2.445725
  H       1.895175     -1.631900      2.869416
  O       1.233471      2.471268      0.271537
  O       0.547019      0.887107      1.683483
  C       0.874779      2.104400      1.384130
  C       0.808415      3.062292      2.541378
  H       0.732187      4.086377      2.186015
  H       1.725843      2.979357      3.127269
  H      -0.020877      2.836561      3.208566
  H       3.243224     -1.911870      0.574628
  H       1.536895     -2.858203     -1.302370
39
Coordinates from ORCA-job reaction4-IEIP_ts_guess_scan_1-2_orca E -1288.397160309833
  Ir      0.575047     -0.727272      0.465191
  C       0.020348     -2.808290      0.351749
  C       0.112805     -2.353758      1.719296
  C       2.189705     -2.138574      0.753363
  C       1.280309     -2.647178     -0.249128
  C       1.483460     -1.999970      1.960006
  N      -1.046996      0.172943     -0.520475
  C      -2.317968      0.515803      0.136079
  C      -3.142184      1.538002     -0.629065
  H      -3.976257      1.855081     -0.004673
  H      -3.576055      1.133807     -1.545179
  H      -2.565380      2.430266     -0.874724
  C      -3.111174     -0.756446      0.407519
  H      -2.024693      0.953156      1.092011
  H      -4.024318     -0.508509      0.946428
  H      -3.397426     -1.251243     -0.521554
  H      -2.556262     -1.463253      1.022892
  C      -0.830942      0.378424     -1.760355
  C       0.524376      0.144750     -2.221133
  H      -1.599963      0.750277     -2.431379
  C       1.636040      0.538657     -1.486910
  C       2.835357      0.129732     -2.139060
  S       0.936708     -0.663305     -3.670567
  C       2.610912     -0.515515     -3.313867
  H       1.542427      1.355638     -0.666543
  H       3.825160      0.353355     -1.768396
  H       3.341340     -0.903294     -4.007843
  H      -0.873663     -3.170149     -0.135389
  H      -0.671067     -2.384680      2.462012
  H       1.877873     -1.607581      2.886313
  O       1.365565      2.450551      0.300405
  O       0.534623      0.897984      1.674272
  C       0.924003      2.100970      1.388904
  C       0.835100      3.063562      2.540671
  H       0.822497      4.089063      2.181584
  H       1.714425      2.942895      3.176373
  H      -0.038702      2.875006      3.161058
  H       3.232532     -1.904748      0.597509
  H       1.531806     -2.866966     -1.276657
39
Coordinates from ORCA-job reaction4-IEIP_ts_guess_scan_1-2_orca E -1288.397621118416
  Ir      0.581810     -0.725211      0.458979
  C       0.028961     -2.806045      0.331264
  C       0.122207     -2.361582      1.702045
  C       2.198067     -2.137192      0.735670
  C       1.288249     -2.639297     -0.269743
  C       1.492703     -2.007967      1.943925
  N      -1.042758      0.181747     -0.516974
  C      -2.312189      0.524777      0.142475
  C      -3.136168      1.549961     -0.618944
  H      -3.968910      1.866585      0.007448
  H      -3.571881      1.148604     -1.535430
  H      -2.558638      2.442134     -0.863252
  C      -3.106984     -0.746854      0.412143
  H      -2.016713      0.959479      1.098964
  H      -4.018934     -0.498706      0.952974
  H      -3.395417     -1.239036     -0.517646
  H      -2.552304     -1.455942      1.025062
  C      -0.827155      0.387351     -1.757088
  C       0.527486      0.146694     -2.214997
  H      -1.595862      0.756803     -2.429788
  C       1.639235      0.552905     -1.487107
  C       2.837164      0.112388     -2.120823
  S       0.938983     -0.697476     -3.643756
  C       2.612107     -0.565061     -3.277137
  H       1.554302      1.409688     -0.703790
  H       3.827403      0.338801     -1.753079
  H       3.342154     -0.979357     -3.955958
  H      -0.865143     -3.165201     -0.157695
  H      -0.660863     -2.398936      2.445291
  H       1.887601     -1.621952      2.872692
  O       1.270999      2.466650      0.279914
  O       0.538965      0.890497      1.679766
  C       0.886156      2.103540      1.385302
  C       0.816580      3.061303      2.542416
  H       0.761214      4.086728      2.187188
  H       1.723560      2.963934      3.142219
  H      -0.026200      2.847323      3.196536
  H       3.240561     -1.901392      0.580696
  H       1.539021     -2.851495     -1.299022
39
Coordinates from ORCA-job reaction4-IEIP_ts_guess_scan_1-2_orca E -1288.397625047919
  Ir      0.584171     -0.728461      0.460324
  C       0.027167     -2.808692      0.335788
  C       0.121180     -2.362776      1.706031
  C       2.197679     -2.143859      0.739552
  C       1.286880     -2.645495     -0.265336
  C       1.492358     -2.011384      1.947451
  N      -1.042210      0.180986     -0.517561
  C      -2.311515      0.524433      0.141649
  C      -3.133930      1.550483     -0.620193
  H      -3.966956      1.867546      0.005586
  H      -3.569105      1.149787     -1.537241
  H      -2.555503      2.442293     -0.863713
  C      -3.107590     -0.746669      0.410115
  H      -2.016239      0.958598      1.098423
  H      -4.019749     -0.497881      0.950256
  H      -3.395711     -1.238209     -0.520116
  H      -2.554115     -1.456538      1.023222
  C      -0.827741      0.386324     -1.758216
  C       0.526647      0.147204     -2.216905
  H      -1.597380      0.755078     -2.430390
  C       1.637505      0.551673     -1.486654
  C       2.836189      0.117504     -2.123368
  S       0.939018     -0.699341     -3.643823
  C       2.612253     -0.556506     -3.281961
  H       1.551591      1.411396     -0.705481
  H       3.826015      0.348338     -1.757338
  H       3.342972     -0.963652     -3.964362
  H      -0.867598     -3.166699     -0.152837
  H      -0.661950     -2.397816      2.449324
  H       1.887996     -1.624947      2.875736
  O       1.268346      2.467663      0.278986
  O       0.542900      0.890556      1.681299
  C       0.889037      2.103585      1.386071
  C       0.817734      3.062588      2.542030
  H       0.758290      4.087410      2.185722
  H       1.725944      2.968977      3.140560
  H      -0.023307      2.846475      3.197702
  H       3.240761     -1.910764      0.584598
  H       1.537336     -2.860015     -1.294191
39
Coordinates from ORCA-job reaction4-IEIP_ts_guess_scan_1-2_orca E -1288.397630648714
  Ir      0.583513     -0.727203      0.460086
  C       0.028115     -2.807541      0.334725
  C       0.121423     -2.362067      1.705109
  C       2.198023     -2.141310      0.739174
  C       1.287864     -2.643234     -0.266117
  C       1.492245     -2.009726      1.946937
  N      -1.042400      0.180863     -0.517614
  C      -2.311871      0.523721      0.141717
  C      -3.134650      1.550001     -0.619463
  H      -3.967634      1.866544      0.006641
  H      -3.569943      1.149730     -1.536634
  H      -2.556473      2.442074     -0.862607
  C      -3.107759     -0.747632      0.409599
  H      -2.016696      0.957516      1.098691
  H      -4.020014     -0.499212      0.949749
  H      -3.395703     -1.238846     -0.520859
  H      -2.554251     -1.457672      1.022476
  C      -0.828129      0.386225     -1.758201
  C       0.526170      0.147956     -2.217395
  H      -1.598104      0.754546     -2.430208
  C       1.637114      0.552203     -1.487227
  C       2.835774      0.115673     -2.122200
  S       0.938825     -0.693778     -3.646931
  C       2.611762     -0.559319     -3.280256
  H       1.551480      1.410481     -0.704638
  H       3.825607      0.343195     -1.754117
  H       3.342380     -0.969764     -3.960795
  H      -0.866282     -3.165938     -0.154293
  H      -0.661904     -2.397812      2.448154
  H       1.887364     -1.623238      2.875422
  O       1.269586      2.467742      0.279149
  O       0.541177      0.891157      1.680677
  C       0.887509      2.104093      1.385470
  C       0.818957      3.062494      2.542120
  H       0.761743      4.087679      2.186524
  H       1.727182      2.966386      3.140255
  H      -0.022316      2.847863      3.197983
  H       3.240998     -1.907431      0.584634
  H       1.538690     -2.857230     -1.294995
39
Coordinates from ORCA-job reaction4-IEIP_ts_guess_scan_1-2_orca E -1288.397631386065
  Ir      0.582869     -0.726579      0.460657
  C       0.028411     -2.806743      0.333815
  C       0.120839     -2.362108      1.704473
  C       2.197842     -2.139955      0.739624
  C       1.288393     -2.641597     -0.266414
  C       1.491364     -2.009330      1.947118
  N      -1.041759      0.180628     -0.516985
  C      -2.311276      0.523608      0.142385
  C      -3.133854      1.550637     -0.618077
  H      -3.966534      1.867198      0.008433
  H      -3.569632      1.151086     -1.535322
  H      -2.555376      2.442597     -0.860909
  C      -3.107676     -0.747550      0.409678
  H      -2.015989      0.956861      1.099569
  H      -4.019918     -0.499001      0.949801
  H      -3.395665     -1.238300     -0.521009
  H      -2.554542     -1.458061      1.022355
  C      -0.827653      0.385081     -1.757668
  C       0.526387      0.146611     -2.217220
  H      -1.597962      0.752345     -2.429837
  C       1.637557      0.550854     -1.487362
  C       2.836129      0.114773     -2.122617
  S       0.938825     -0.695036     -3.646742
  C       2.611905     -0.559021     -3.281393
  H       1.552091      1.408801     -0.704429
  H       3.826002      0.342085     -1.754509
  H       3.342341     -0.968712     -3.962585
  H      -0.865623     -3.165070     -0.155922
  H      -0.662890     -2.398443      2.447061
  H       1.885884     -1.623152      2.875987
  O       1.269638      2.466316      0.278925
  O       0.539873      0.890752      1.680836
  C       0.887072      2.103273      1.385314
  C       0.818072      3.062471      2.541302
  H       0.761171      4.087434      2.185031
  H       1.726005      2.966586      3.139922
  H      -0.023532      2.848380      3.196930
  H       3.240834     -1.905623      0.585834
  H       1.539744     -2.854904     -1.295308
