! Opt PBEh-3c
%geom Constraints
{ B 0 20 2.0428571428571427 C }
{ B 24 30 1.3714285714285714 C }
    end
end
%output 
xyzfile=True 
end 
%scf 
maxiter 250 
end
%output
Print[P_Hirshfeld] = 1
end
% maxcore
4000
*xyz 1 1
Ir   0.61683125  -0.73330802   0.41024504 
C    0.15529824  -2.85076877   0.33192475 
C   -0.08557128  -2.40536492   1.68058383 
C    2.14929943  -2.06096913   1.19148659 
C    1.52605679  -2.65939799   0.04504931 
C    1.14454848  -1.93900987   2.19378273 
N   -1.07311679   0.11469953  -0.50996388 
C   -2.34285858   0.30679300   0.20607578 
C   -3.13676082   1.51673999  -0.26544930 
H   -3.96650730   1.68179632   0.41997278 
H   -3.57348778   1.37859465  -1.25546721 
H   -2.53181179   2.42373310  -0.27173350 
C   -3.16901221  -0.97176059   0.11723636 
H   -2.05931871   0.47169553   1.24668924 
H   -4.07183465  -0.87346226   0.71868677 
H   -3.47299270  -1.17201065  -0.91097688 
H   -2.62237992  -1.83882953   0.48436350 
C   -0.92528588   0.47858812  -1.73105419 
C    0.39110262   0.30357739  -2.26416073 
H   -1.73422405   0.91718083  -2.30609461 
C    1.41813140   0.03809369  -1.35414198 
C    2.63651027  -0.19607768  -2.06804782 
S    0.89240602   0.29376980  -3.88331921 
C    2.49707980  -0.08463277  -3.41763199 
H    1.62498713   1.14383502  -0.66350949 
H    3.58923946  -0.37885184  -1.59218847 
H    3.26331624  -0.18472713  -4.17133274 
H   -0.57092108  -3.29359628  -0.33389999 
H   -1.01794244  -2.45976196   2.22131144 
H    1.28661640  -1.49263635   3.16788588 
O    1.73654218   2.30922554   0.07785716 
O    0.58534614   1.03310764   1.49201073 
C    1.14605821   2.12291860   1.16131744 
C    1.10986734   3.24070545   2.16147667 
H    0.99174450   4.19906331   1.66102807 
H    2.06270914   3.26969915   2.69279426 
H    0.31775316   3.09902769   2.89119302 
H    3.19726965  -1.83362001   1.31068664 
H    2.01468216  -2.91486862  -0.88394599 
*
