39
Coordinates from ORCA-job reaction4-IEIP_ts_guess_scan_7-13_orca E -1288.401334303851
  Ir      0.597506     -0.729065      0.474166
  C       0.100046     -2.828824      0.355921
  C      -0.043546     -2.364194      1.712095
  C       2.166185     -2.095221      1.087889
  C       1.444413     -2.652353     -0.029478
  C       1.248630     -1.948858      2.152504
  N      -1.055665      0.122282     -0.502518
  C      -2.338963      0.348726      0.184002
  C      -3.124244      1.532957     -0.361805
  H      -3.959081      1.739857      0.306222
  H      -3.554471      1.340474     -1.345518
  H      -2.516442      2.436422     -0.414849
  C      -3.166302     -0.931227      0.150781
  H      -2.071787      0.567963      1.218748
  H      -4.081937     -0.796184      0.725085
  H      -3.448768     -1.190467     -0.870429
  H      -2.631965     -1.776341      0.581905
  C      -0.889321      0.416753     -1.735695
  C       0.435161      0.252724     -2.259104
  H      -1.700677      0.798512     -2.348632
  C       1.525818      0.227715     -1.400083
  C       2.716890     -0.061183     -2.122624
  S       0.856311     -0.025714     -3.886671
  C       2.503590     -0.211302     -3.461080
  H       1.626688      1.206311     -0.549416
  H       3.701138     -0.097314     -1.678759
  H       3.236589     -0.401929     -4.230398
  H      -0.686150     -3.232976     -0.265136
  H      -0.935568     -2.407396      2.318872
  H       1.471420     -1.520191      3.119484
  O       1.682772      2.289385      0.192981
  O       0.539176      0.999460      1.589077
  C       1.091308      2.099960      1.268217
  C       1.037023      3.204411      2.281273
  H       0.954810      4.171209      1.790403
  H       1.969232      3.207774      2.849088
  H       0.217191      3.067822      2.981213
  H       3.220999     -1.869453      1.119942
  H       1.861362     -2.891334     -0.996931
39
Coordinates from ORCA-job reaction4-IEIP_ts_guess_scan_7-13_orca E -1288.401513342153
  Ir      0.600611     -0.730995      0.475655
  C       0.098491     -2.831739      0.361529
  C      -0.046472     -2.366601      1.717077
  C       2.164542     -2.100622      1.095796
  C       1.443775     -2.658282     -0.021796
  C       1.245005     -1.951712      2.158610
  N      -1.054995      0.121186     -0.504082
  C      -2.337283      0.348047      0.182964
  C      -3.122962      1.530724     -0.365550
  H      -3.958278      1.738510      0.301570
  H      -3.552288      1.335884     -1.349221
  H      -2.515638      2.434431     -0.420155
  C      -3.163546     -0.932593      0.152482
  H      -2.069457      0.569244      1.217140
  H      -4.079103     -0.797165      0.726793
  H      -3.446143     -1.194070     -0.868127
  H      -2.628289     -1.776368      0.585193
  C      -0.890889      0.417174     -1.739907
  C       0.433952      0.259455     -2.267546
  H      -1.703690      0.801503     -2.349322
  C       1.520855      0.220958     -1.405019
  C       2.712981     -0.063171     -2.128587
  S       0.857226     -0.005229     -3.896748
  C       2.502980     -0.198233     -3.469064
  H       1.625242      1.209019     -0.550539
  H       3.696296     -0.105235     -1.683152
  H       3.237628     -0.382008     -4.238371
  H      -0.687166     -3.235701     -0.260350
  H      -0.939318     -2.408652      2.322593
  H       1.466805     -1.522553      3.125586
  O       1.685192      2.292533      0.190912
  O       0.539917      1.000414      1.591354
  C       1.093422      2.101152      1.269142
  C       1.039490      3.205971      2.281443
  H       0.955573      4.172520      1.790259
  H       1.972468      3.210546      2.847955
  H       0.220639      3.068646      2.982286
  H       3.219810     -1.877412      1.129852
  H       1.861986     -2.900383     -0.987916
39
Coordinates from ORCA-job reaction4-IEIP_ts_guess_scan_7-13_orca E -1288.401634244059
  Ir      0.598222     -0.731676      0.477372
  C       0.088971     -2.832599      0.374896
  C      -0.056316     -2.364122      1.728585
  C       2.155680     -2.103936      1.107822
  C       1.435202     -2.664550     -0.007813
  C       1.234296     -1.948990      2.168912
  N      -1.052831      0.116248     -0.503554
  C      -2.336145      0.339991      0.182107
  C      -3.123924      1.521854     -0.365414
  H      -3.960496      1.727044      0.300952
  H      -3.551618      1.327319     -1.349821
  H      -2.518454      2.426923     -0.418180
  C      -3.160297     -0.942001      0.149731
  H      -2.069602      0.560120      1.216860
  H      -4.076835     -0.808740      0.723055
  H      -3.441183     -1.203135     -0.871424
  H      -2.623951     -1.785000      0.582455
  C      -0.888120      0.418841     -1.739585
  C       0.436395      0.267237     -2.273674
  H      -1.702056      0.807626     -2.344249
  C       1.521436      0.203376     -1.410312
  C       2.713743     -0.066076     -2.139999
  S       0.861086      0.045294     -3.908459
  C       2.504996     -0.167742     -3.483424
  H       1.633098      1.204724     -0.550971
  H       3.696631     -0.122333     -1.695070
  H       3.240103     -0.335404     -4.255888
  H      -0.696787     -3.237143     -0.246450
  H      -0.949751     -2.402566      2.333304
  H       1.455841     -1.516696      3.134541
  O       1.700411      2.289386      0.188167
  O       0.537664      1.004580      1.588099
  C       1.100224      2.100690      1.266003
  C       1.049129      3.208262      2.274376
  H       0.971134      4.173963      1.780467
  H       1.980560      3.209968      2.843460
  H       0.227429      3.076143      2.972721
  H       3.211654     -1.884474      1.143191
  H       1.853831     -2.913216     -0.972048
39
Coordinates from ORCA-job reaction4-IEIP_ts_guess_scan_7-13_orca E -1288.401685059925
  Ir      0.599243     -0.735750      0.480601
  C       0.083147     -2.835602      0.391205
  C      -0.061837     -2.361291      1.742539
  C       2.151473     -2.110116      1.121702
  C       1.430429     -2.673939      0.008411
  C       1.229054     -1.946964      2.181030
  N      -1.052407      0.112380     -0.505142
  C      -2.337934      0.331295      0.178655
  C      -3.126229      1.515051     -0.364064
  H      -3.964125      1.715843      0.301923
  H      -3.552153      1.324976     -1.350107
  H      -2.521737      2.421090     -0.411238
  C      -3.161870     -0.950723      0.138259
  H      -2.074160      0.546535      1.215175
  H      -4.080260     -0.820102      0.709238
  H      -3.439488     -1.207429     -0.884909
  H      -2.626938     -1.795449      0.569009
  C      -0.887602      0.423652     -1.738889
  C       0.434769      0.275930     -2.276609
  H      -1.702849      0.814998     -2.340001
  C       1.518428      0.189769     -1.413736
  C       2.710947     -0.067275     -2.146800
  S       0.860482      0.087088     -3.914958
  C       2.504150     -0.133135     -3.492933
  H       1.637701      1.198306     -0.552908
  H       3.692944     -0.137849     -1.701961
  H       3.240262     -0.283639     -4.267969
  H      -0.703130     -3.240940     -0.228946
  H      -0.955781     -2.394377      2.346788
  H       1.451193     -1.510369      3.144600
  O       1.712578      2.284219      0.183662
  O       0.541273      1.007656      1.584051
  C       1.108741      2.099362      1.261055
  C       1.062257      3.210705      2.265000
  H       0.986966      4.174937      1.767813
  H       1.994167      3.211558      2.833303
  H       0.240508      3.083378      2.964141
  H       3.208237     -1.894718      1.157696
  H       1.848918     -2.929869     -0.953946
39
Coordinates from ORCA-job reaction4-IEIP_ts_guess_scan_7-13_orca E -1288.401699322493
  Ir      0.598384     -0.738816      0.481986
  C       0.078615     -2.836954      0.402635
  C      -0.066993     -2.357566      1.751990
  C       2.147622     -2.112946      1.132040
  C       1.426941     -2.679622      0.020201
  C       1.223992     -1.943414      2.189548
  N      -1.052185      0.109094     -0.506350
  C      -2.339443      0.322837      0.176592
  C      -3.128856      1.508671     -0.360084
  H      -3.967137      1.704689      0.306759
  H      -3.554399      1.323570     -1.347259
  H      -2.525458      2.415710     -0.402052
  C      -3.162451     -0.959493      0.127965
  H      -2.077873      0.532933      1.214778
  H      -4.082553     -0.832006      0.696865
  H      -3.436939     -1.211584     -0.897201
  H      -2.628484     -1.806060      0.556318
  C      -0.886789      0.429128     -1.737068
  C       0.433799      0.284764     -2.276449
  H      -1.702658      0.823464     -2.335473
  C       1.517315      0.180110     -1.415681
  C       2.709670     -0.067760     -2.150799
  S       0.862135      0.134146     -3.917980
  C       2.502569     -0.111715     -3.498191
  H       1.643384      1.191667     -0.554294
  H       3.690539     -0.154465     -1.706462
  H       3.238127     -0.255569     -4.275044
  H      -0.707544     -3.243319     -0.216983
  H      -0.961692     -2.386248      2.355370
  H       1.446137     -1.502853      3.151327
  O       1.724984      2.278172      0.180686
  O       0.542833      1.010694      1.577827
  C       1.116060      2.097903      1.255883
  C       1.072531      3.213156      2.255897
  H       1.000659      4.175899      1.755373
  H       2.004088      3.213147      2.824755
  H       0.249819      3.090862      2.954843
  H       3.204850     -1.900031      1.168974
  H       1.845771     -2.941003     -0.940502
39
Coordinates from ORCA-job reaction4-IEIP_ts_guess_scan_7-13_orca E -1288.401706536753
  Ir      0.596217     -0.740050      0.482079
  C       0.076667     -2.837036      0.403384
  C      -0.070615     -2.356606      1.752310
  C       2.144972     -2.113123      1.134985
  C       1.425702     -2.680165      0.022439
  C       1.220065     -1.942545      2.191201
  N      -1.051656      0.108375     -0.505594
  C      -2.338921      0.321237      0.177742
  C      -3.128664      1.507700     -0.357165
  H      -3.966297      1.702860      0.310722
  H      -3.555138      1.323838     -1.344183
  H      -2.525318      2.414806     -0.398574
  C      -3.161587     -0.961178      0.127569
  H      -2.077435      0.530384      1.216154
  H      -4.082162     -0.834218      0.695822
  H      -3.435179     -1.212608     -0.898001
  H      -2.627938     -1.808148      0.555702
  C      -0.885686      0.429927     -1.735458
  C       0.434242      0.283708     -2.274672
  H      -1.701293      0.824672     -2.334037
  C       1.518800      0.175255     -1.415566
  C       2.711249     -0.067249     -2.151621
  S       0.861786      0.134981     -3.916860
  C       2.503810     -0.102103     -3.499509
  H       1.646283      1.185976     -0.554881
  H       3.692405     -0.154375     -1.708136
  H       3.239592     -0.238419     -4.277546
  H      -0.708643     -3.243627     -0.217161
  H      -0.966183     -2.384255      2.354474
  H       1.441229     -1.501074      3.152793
  O       1.729022      2.272922      0.179319
  O       0.541613      1.010421      1.574621
  C       1.117463      2.095799      1.253048
  C       1.074001      3.213350      2.251036
  H       1.003108      4.175033      1.748370
  H       2.005232      3.213938      2.820406
  H       0.250805      3.093328      2.949840
  H       3.202185     -1.900315      1.173270
  H       1.845638     -2.942229     -0.937580
39
Coordinates from ORCA-job reaction4-IEIP_ts_guess_scan_7-13_orca E -1288.401711264135
  Ir      0.596666     -0.740069      0.481738
  C       0.079162     -2.837374      0.400383
  C      -0.069528     -2.357913      1.749623
  C       2.146385     -2.112303      1.134381
  C       1.428382     -2.679003      0.020762
  C       1.220645     -1.943367      2.190027
  N      -1.052216      0.109077     -0.505652
  C      -2.339003      0.322549      0.178296
  C      -3.128333      1.509166     -0.356850
  H      -3.965662      1.704926      0.311271
  H      -3.555124      1.325204     -1.343703
  H      -2.524566      2.415961     -0.398720
  C      -3.162089     -0.959599      0.128649
  H      -2.077048      0.532035      1.216497
  H      -4.082590     -0.832124      0.696935
  H      -3.435855     -1.211324     -0.896797
  H      -2.628774     -1.806618      0.556988
  C      -0.886625      0.429788     -1.735962
  C       0.433603      0.283371     -2.274612
  H      -1.702056      0.824440     -2.334787
  C       1.518086      0.177805     -1.415231
  C       2.710527     -0.067754     -2.150180
  S       0.861572      0.129804     -3.916463
  C       2.503123     -0.107714     -3.498006
  H       1.645183      1.187057     -0.554904
  H       3.691619     -0.153402     -1.706265
  H       3.238920     -0.247128     -4.275484
  H      -0.705256     -3.244235     -0.221117
  H      -0.965516     -2.386761      2.351104
  H       1.440743     -1.502545      3.152158
  O       1.727532      2.273795      0.179647
  O       0.541483      1.010119      1.575194
  C       1.116551      2.096285      1.253498
  C       1.072488      3.213315      2.252073
  H       0.999612      4.174998      1.749678
  H       2.004371      3.215079      2.820371
  H       0.250273      3.091975      2.951785
  H       3.203369     -1.898505      1.173580
  H       1.849313     -2.939822     -0.939166
39
Coordinates from ORCA-job reaction4-IEIP_ts_guess_scan_7-13_orca E -1288.401712948383
  Ir      0.596578     -0.740231      0.481688
  C       0.080906     -2.837725      0.398355
  C      -0.070444     -2.358893      1.747616
  C       2.146409     -2.111454      1.136452
  C       1.430756     -2.678199      0.021362
  C       1.218696     -1.943691      2.190538
  N      -1.052500      0.109510     -0.505411
  C      -2.339029      0.322701      0.178980
  C      -3.128466      1.509495     -0.355683
  H      -3.965618      1.705027      0.312736
  H      -3.555411      1.325905     -1.342534
  H      -2.524677      2.416282     -0.397352
  C      -3.161967     -0.959500      0.128853
  H      -2.076900      0.531977      1.217162
  H      -4.082679     -0.832242      0.696861
  H      -3.435377     -1.211062     -0.896726
  H      -2.628772     -1.806622      0.557120
  C      -0.887220      0.430533     -1.735814
  C       0.432985      0.284047     -2.274564
  H      -1.702593      0.825684     -2.334348
  C       1.517515      0.177838     -1.415422
  C       2.709746     -0.068540     -2.150303
  S       0.861079      0.130636     -3.916632
  C       2.502079     -0.108948     -3.498169
  H       1.645880      1.186261     -0.554936
  H       3.690840     -0.154668     -1.706502
  H       3.237715     -0.249208     -4.275653
  H      -0.701967     -3.245111     -0.224751
  H      -0.967422     -2.388656      2.347572
  H       1.436811     -1.503119      3.153234
  O       1.729299      2.272869      0.179688
  O       0.541179      1.010330      1.574753
  C       1.117313      2.096179      1.253123
  C       1.072831      3.213576      2.251234
  H       0.997987      4.174790      1.748188
  H       2.005449      3.217038      2.818296
  H       0.251620      3.091627      2.951988
  H       3.203157     -1.896869      1.177651
  H       1.853581     -2.938379     -0.937910
