39
Generated by autodE on: 2023-08-14. E = -1288.398666 Ha
Ir    0.60151  -0.72632   0.47343
C     0.07091  -2.81908   0.36148
C     0.03600  -2.35810   1.72580
C     2.19310  -2.11978   0.94140
C     1.38043  -2.65334  -0.12738
C     1.36927  -1.97228   2.07501
N    -1.04153   0.13768  -0.51042
C    -2.31687   0.41717   0.17024
C    -3.09856   1.56541  -0.44983
H    -3.92731   1.82399   0.20787
H    -3.53748   1.30781  -1.41471
H    -2.48555   2.45906  -0.56877
C    -3.14873  -0.85842   0.23660
H    -2.03531   0.70273   1.18481
H    -4.06104  -0.67381   0.80200
H    -3.43676  -1.19485  -0.76023
H    -2.61610  -1.66821   0.73300
C    -0.86908   0.37697  -1.75552
C     0.46587   0.19347  -2.26461
H    -1.67437   0.73729  -2.38910
C     1.56348   0.35059  -1.42565
C     2.76354   0.00903  -2.11183
S     0.89037  -0.31689  -3.83285
C     2.55054  -0.36107  -3.40443
H     1.54666   1.28374  -0.61972
H     3.74996   0.09018  -1.67893
H     3.28610  -0.63679  -4.14491
H    -0.76876  -3.20166  -0.20071
H    -0.80984  -2.39267   2.39623
H     1.67269  -1.55939   3.02660
O     1.44852   2.39718   0.19933
O     0.54264   0.95436   1.63554
C     0.98111   2.11528   1.30822
C     0.92944   3.15171   2.39334
H     0.89092   4.15224   1.97110
H     1.83868   3.07973   2.99340
H     0.08517   2.99309   3.06029
H     3.24807  -1.89706   0.88925
H     1.72171  -2.88978  -1.12461
