39
Generated by autodE on: 2023-08-14. E = -1288.394675 Ha
Ir    0.57872  -0.73490   0.50216
C     0.02951  -2.81584   0.37740
C     0.06238  -2.36521   1.74675
C     2.18119  -2.14447   0.86870
C     1.31447  -2.65276  -0.17089
C     1.41936  -2.00470   2.04254
N    -1.03979   0.14340  -0.50538
C    -2.32162   0.44782   0.15283
C    -3.11020   1.55252  -0.53312
H    -3.94355   1.83999   0.10657
H    -3.54375   1.23899  -1.48395
H    -2.50503   2.44418  -0.69886
C    -3.14355  -0.82829   0.28920
H    -2.04681   0.79246   1.15109
H    -4.06529  -0.61471   0.82839
H    -3.41482  -1.23091  -0.68762
H    -2.61360  -1.59907   0.84696
C    -0.84533   0.35787  -1.75102
C     0.49809   0.17292  -2.24421
H    -1.64227   0.70222  -2.40429
C     1.60537   0.46091  -1.45683
C     2.80267   0.09858  -2.13512
S     0.91228  -0.46636  -3.77353
C     2.58064  -0.40329  -3.38099
H     1.54403   1.36122  -0.61941
H     3.79342   0.25786  -1.73481
H     3.31289  -0.72142  -4.10775
H    -0.84091  -3.18000  -0.14921
H    -0.75250  -2.39925   2.45484
H     1.77290  -1.61161   2.98497
O     1.39613   2.40528   0.23493
O     0.53784   0.93191   1.67257
C     0.95631   2.10353   1.34832
C     0.91416   3.12304   2.44964
H     0.86185   4.12912   2.04232
H     1.83324   3.04964   3.03451
H     0.08198   2.94913   3.12797
H     3.23145  -1.91734   0.76213
H     1.60752  -2.87328  -1.18705
