39
Coordinates from ORCA-job reaction4-IEIP_ts_guess_scan_2-5_orca E -1288.396772081767
  Ir      0.579080     -0.724167      0.452769
  C       0.026662     -2.804262      0.326954
  C       0.125833     -2.362249      1.697738
  C       2.197508     -2.135550      0.721903
  C       1.283214     -2.636201     -0.280209
  C       1.497149     -2.007608      1.933340
  N      -1.050226      0.178723     -0.519038
  C      -2.320299      0.517768      0.141697
  C      -3.145047      1.545542     -0.615600
  H      -3.977378      1.859724      0.012587
  H      -3.581440      1.147646     -1.533253
  H      -2.567995      2.438742     -0.857278
  C      -3.115207     -0.754896      0.406309
  H      -2.025503      0.949390      1.099803
  H      -4.028190     -0.508574      0.946227
  H      -3.401875     -1.244406     -0.525443
  H      -2.561624     -1.465758      1.018153
  C      -0.834836      0.382086     -1.758460
  C       0.521866      0.145818     -2.205963
  H      -1.603061      0.746548     -2.434607
  C       1.622425      0.538558     -1.454740
  C       2.828502      0.107542     -2.079292
  S       0.951269     -0.676768     -3.641825
  C       2.619192     -0.549733     -3.250828
  H       1.529388      1.401842     -0.662124
  H       3.814013      0.326866     -1.694668
  H       3.358475     -0.951479     -3.927344
  H      -0.869610     -3.162570     -0.158743
  H      -0.653807     -2.401370      2.444483
  H       1.896358     -1.622974      2.860853
  O       1.287182      2.463704      0.262323
  O       0.541864      0.898879      1.668199
  C       0.900592      2.105953      1.370621
  C       0.842236      3.070357      2.522295
  H       0.792302      4.094414      2.162397
  H       1.751137      2.969524      3.118718
  H       0.000777      2.864851      3.180839
  H       3.239353     -1.899522      0.562875
  H       1.529091     -2.847201     -1.310928
39
Coordinates from ORCA-job reaction4-IEIP_ts_guess_scan_2-5_orca E -1288.395499593772
  Ir      0.582696     -0.712091      0.444174
  C       0.044274     -2.796326      0.304104
  C       0.134149     -2.363570      1.678264
  C       2.208736     -2.115857      0.713601
  C       1.302521     -2.616318     -0.295881
  C       1.501589     -2.000085      1.922284
  N      -1.058251      0.184211     -0.525460
  C      -2.325160      0.526844      0.138335
  C      -3.156000      1.543640     -0.627021
  H      -3.986379      1.862968      0.001154
  H      -3.595259      1.133974     -1.538137
  H      -2.582338      2.435434     -0.881656
  C      -3.114633     -0.745187      0.421235
  H      -2.026458      0.969951      1.089967
  H      -4.025374     -0.495612      0.963427
  H      -3.404902     -1.245768     -0.503481
  H      -2.555392     -1.447556      1.037795
  C      -0.850962      0.372304     -1.769729
  C       0.505720      0.134744     -2.216066
  H      -1.623746      0.722832     -2.448052
  C       1.601405      0.556656     -1.472632
  C       2.810599      0.106029     -2.078314
  S       0.941820     -0.735965     -3.620682
  C       2.607446     -0.595428     -3.224836
  H       1.506305      1.478312     -0.738183
  H       3.794365      0.347001     -1.702385
  H       3.350447     -1.017129     -3.884826
  H      -0.847169     -3.157662     -0.188167
  H      -0.648376     -2.413824      2.421247
  H       1.893818     -1.618836      2.854152
  O       1.403202      2.431982      0.320448
  O       0.521280      0.899988      1.675970
  C       0.935006      2.093715      1.403873
  C       0.840410      3.062468      2.549311
  H       0.847897      4.086797      2.186717
  H       1.707429      2.931769      3.199802
  H      -0.046054      2.887681      3.155476
  H       3.249891     -1.872786      0.561369
  H       1.554818     -2.820111     -1.326456
39
Coordinates from ORCA-job reaction4-IEIP_ts_guess_scan_2-5_orca E -1288.396849612031
  Ir      0.585691     -0.727642      0.454907
  C       0.029413     -2.808785      0.331651
  C       0.123922     -2.367275      1.702660
  C       2.199900     -2.143087      0.734148
  C       1.288808     -2.643513     -0.270911
  C       1.494355     -2.012818      1.942549
  N      -1.047261      0.178953     -0.518714
  C      -2.315663      0.518478      0.143107
  C      -3.138188      1.547923     -0.614284
  H      -3.970618      1.863190      0.013223
  H      -3.574131      1.151093     -1.532660
  H      -2.559477      2.440294     -0.855128
  C      -3.111394     -0.753819      0.406392
  H      -2.019731      0.948552      1.101553
  H      -4.023676     -0.507361      0.947409
  H      -3.399284     -1.241662     -0.525847
  H      -2.557710     -1.465995      1.016719
  C      -0.834145      0.389585     -1.759719
  C       0.521792      0.156777     -2.215798
  H      -1.604592      0.759471     -2.430377
  C       1.625335      0.531141     -1.457223
  C       2.827741      0.097763     -2.089337
  S       0.944833     -0.656057     -3.658578
  C       2.613561     -0.546202     -3.266620
  H       1.547393      1.418469     -0.676226
  H       3.815283      0.310260     -1.706209
  H       3.349702     -0.943601     -3.948958
  H      -0.865373     -3.166410     -0.157252
  H      -0.658157     -2.406138      2.446753
  H       1.890484     -1.628054      2.871312
  O       1.264691      2.458868      0.261039
  O       0.537392      0.897050      1.675258
  C       0.889592      2.103780      1.375007
  C       0.832239      3.072977      2.522415
  H       0.773189      4.095145      2.158444
  H       1.745526      2.980805      3.113433
  H      -0.003666      2.864606      3.186930
  H       3.242983     -1.910131      0.579676
  H       1.538612     -2.857442     -1.300005
39
Coordinates from ORCA-job reaction4-IEIP_ts_guess_scan_2-5_orca E -1288.395339754586
  Ir      0.569419     -0.730832      0.464781
  C       0.004302     -2.810361      0.378689
  C       0.098275     -2.344162      1.741161
  C       2.176760     -2.146843      0.772435
  C       1.265306     -2.661933     -0.224553
  C       1.469537     -1.991362      1.976900
  N      -1.055874      0.158840     -0.528280
  C      -2.329109      0.493151      0.128284
  C      -3.156655      1.516291     -0.632322
  H      -3.992337      1.827246     -0.006969
  H      -3.588488      1.115351     -1.550813
  H      -2.583115      2.411946     -0.873281
  C      -3.118585     -0.782992      0.392273
  H      -2.038869      0.926889      1.086782
  H      -4.033813     -0.540590      0.930192
  H      -3.401003     -1.274557     -0.539680
  H      -2.562571     -1.490606      1.005654
  C      -0.843458      0.369499     -1.768688
  C       0.513309      0.158957     -2.231640
  H      -1.616598      0.740633     -2.435279
  C       1.613461      0.507608     -1.458205
  C       2.821861      0.141830     -2.120107
  S       0.944115     -0.564539     -3.718523
  C       2.613791     -0.430929     -3.335124
  H       1.511756      1.313507     -0.602504
  H       3.806794      0.344350     -1.724875
  H       3.353571     -0.772667     -4.043325
  H      -0.891270     -3.172734     -0.105267
  H      -0.685442     -2.365368      2.484234
  H       1.865600     -1.591000      2.899081
  O       1.491608      2.415467      0.306393
  O       0.529071      0.916122      1.654661
  C       0.981651      2.095680      1.377455
  C       0.885925      3.076913      2.511847
  H       0.931366      4.097294      2.141069
  H       1.732306      2.927853      3.185181
  H      -0.020153      2.932281      3.096652
  H       3.221169     -1.921177      0.615591
  H       1.515756     -2.895866     -1.249141
39
Coordinates from ORCA-job reaction4-IEIP_ts_guess_scan_2-5_orca E -1288.396923842494
  Ir      0.578616     -0.722599      0.458202
  C       0.024205     -2.803928      0.344552
  C       0.114870     -2.355722      1.713301
  C       2.193004     -2.134585      0.748429
  C       1.284893     -2.640736     -0.256197
  C       1.484113     -1.998654      1.954417
  N      -1.049644      0.175081     -0.520681
  C      -2.322058      0.507127      0.138580
  C      -3.148587      1.535568     -0.616011
  H      -3.983589      1.844156      0.011418
  H      -3.581319      1.140315     -1.536544
  H      -2.574067      2.431848     -0.852298
  C      -3.113394     -0.769238      0.395841
  H      -2.030679      0.935224      1.099314
  H      -4.028066     -0.528362      0.935398
  H      -3.396926     -1.255232     -0.538698
  H      -2.558312     -1.481049      1.005139
  C      -0.835558      0.389136     -1.760633
  C       0.518964      0.161128     -2.221686
  H      -1.607772      0.757384     -2.429901
  C       1.624995      0.520938     -1.460219
  C       2.825650      0.098062     -2.101652
  S       0.938441     -0.619086     -3.682825
  C       2.608191     -0.520763     -3.291857
  H       1.551042      1.389464     -0.658879
  H       3.814068      0.297654     -1.713772
  H       3.342185     -0.907627     -3.982528
  H      -0.869172     -3.164430     -0.144808
  H      -0.669074     -2.391168      2.455562
  H       1.877589     -1.608566      2.882078
  O       1.350166      2.446503      0.280873
  O       0.526438      0.907145      1.668760
  C       0.921993      2.103101      1.379671
  C       0.851841      3.075203      2.523769
  H       0.835167      4.098113      2.157607
  H       1.740475      2.957610      3.146982
  H      -0.012912      2.891672      3.158054
  H       3.236388     -1.901726      0.595569
  H       1.537203     -2.859771     -1.283584
39
Coordinates from ORCA-job reaction4-IEIP_ts_guess_scan_2-5_orca E -1288.396940436468
  Ir      0.582892     -0.727741      0.458893
  C       0.022368     -2.807747      0.346996
  C       0.113296     -2.359062      1.715452
  C       2.192892     -2.144739      0.751945
  C       1.283948     -2.648869     -0.253047
  C       1.483350     -2.005550      1.957153
  N      -1.046769      0.174092     -0.521824
  C      -2.318127      0.508724      0.138211
  C      -3.142280      1.539798     -0.615356
  H      -3.976256      1.850011      0.012632
  H      -3.576367      1.146450     -1.536063
  H      -2.565615      2.434830     -0.851131
  C      -3.112839     -0.765727      0.394626
  H      -2.025428      0.935551      1.099114
  H      -4.026877     -0.522682      0.934253
  H      -3.397600     -1.250390     -0.540221
  H      -2.559749     -1.479395      1.003495
  C      -0.835597      0.384005     -1.763126
  C       0.518520      0.159077     -2.223584
  H      -1.609272      0.749396     -2.432365
  C       1.620778      0.522977     -1.459473
  C       2.824559      0.107427     -2.099520
  S       0.942748     -0.631805     -3.677230
  C       2.611916     -0.513769     -3.289608
  H       1.541557      1.401997     -0.668368
  H       3.811385      0.316365     -1.712525
  H       3.348879     -0.894387     -3.980581
  H      -0.871670     -3.165932     -0.142873
  H      -0.671263     -2.391854      2.457180
  H       1.877313     -1.615927      2.884808
  O       1.310417      2.455930      0.267910
  O       0.533741      0.903894      1.670118
  C       0.908098      2.104894      1.374367
  C       0.853316      3.073770      2.521921
  H       0.816879      4.097233      2.158767
  H       1.757250      2.964734      3.124375
  H       0.005424      2.879090      3.175364
  H       3.237227     -1.915611      0.600036
  H       1.536327     -2.869868     -1.279985
39
Coordinates from ORCA-job reaction4-IEIP_ts_guess_scan_2-5_orca E -1288.396957046462
  Ir      0.583192     -0.727157      0.458906
  C       0.023701     -2.806999      0.345907
  C       0.113874     -2.359051      1.714550
  C       2.193772     -2.143278      0.751820
  C       1.285448     -2.647306     -0.253721
  C       1.483600     -2.004938      1.956826
  N      -1.045883      0.173260     -0.521327
  C      -2.316924      0.507788      0.139550
  C      -3.140279      1.541128     -0.611813
  H      -3.973531      1.851226      0.017200
  H      -3.575413      1.149991     -1.532962
  H      -2.562652      2.435868     -0.846332
  C      -3.113018     -0.766256      0.393859
  H      -2.023695      0.932686      1.101135
  H      -4.026809     -0.523134      0.933869
  H      -3.398264     -1.249070     -0.541799
  H      -2.560741     -1.481558      1.001542
  C      -0.835895      0.383087     -1.762779
  C       0.517856      0.160023     -2.224959
  H      -1.610536      0.748216     -2.431052
  C       1.620239      0.522559     -1.460567
  C       2.824044      0.104431     -2.098673
  S       0.942763     -0.619569     -3.684244
  C       2.611229     -0.516984     -3.288729
  H       1.540842      1.399772     -0.667370
  H       3.810796      0.307430     -1.708367
  H       3.347973     -0.902104     -3.977451
  H      -0.870003     -3.165209     -0.144562
  H      -0.671018     -2.392346      2.455889
  H       1.877025     -1.615462      2.884772
  O       1.311190      2.455570      0.267172
  O       0.534144      0.903698      1.669656
  C       0.909310      2.104281      1.373831
  C       0.850069      3.074772      2.519827
  H       0.811702      4.097634      2.155195
  H       1.753313      2.968774      3.123863
  H       0.001600      2.878925      3.172197
  H       3.238115     -1.913727      0.600550
  H       1.538235     -2.867780     -1.280671
39
Coordinates from ORCA-job reaction4-IEIP_ts_guess_scan_2-5_orca E -1288.396965431875
  Ir      0.581854     -0.726163      0.461238
  C       0.024353     -2.806057      0.346239
  C       0.112428     -2.358987      1.715245
  C       2.193371     -2.140755      0.755122
  C       1.286743     -2.644925     -0.251831
  C       1.481495     -2.003787      1.959362
  N      -1.045442      0.172141     -0.519882
  C      -2.316905      0.506283      0.140531
  C      -3.138863      1.541730     -0.609538
  H      -3.971965      1.851793      0.019705
  H      -3.574228      1.152646     -1.531445
  H      -2.560060      2.436126     -0.842458
  C      -3.114230     -0.767581      0.391965
  H      -2.024219      0.929309      1.103082
  H      -4.028359     -0.524705      0.931523
  H      -3.398927     -1.248607     -0.544782
  H      -2.563076     -1.484381      0.998944
  C      -0.835496      0.381517     -1.761433
  C       0.517754      0.157777     -2.225186
  H      -1.610862      0.745363     -2.429566
  C       1.621392      0.517462     -1.460842
  C       2.824523      0.102341     -2.102058
  S       0.941157     -0.617837     -3.686910
  C       2.610323     -0.512604     -3.295262
  H       1.542612      1.392339     -0.664729
  H       3.811712      0.304056     -1.712248
  H       3.346217     -0.893437     -3.987274
  H      -0.868445     -3.164589     -0.145656
  H      -0.673440     -2.393153      2.455497
  H       1.873432     -1.614448      2.887998
  O       1.319657      2.450059      0.269260
  O       0.531788      0.903994      1.671175
  C       0.911160      2.102871      1.374807
  C       0.849646      3.076292      2.518298
  H       0.815313      4.098376      2.151117
  H       1.750207      2.969501      3.126207
  H      -0.001912      2.884103      3.167721
  H       3.237744     -1.910298      0.605412
  H       1.540919     -2.864577     -1.278609
39
Coordinates from ORCA-job reaction4-IEIP_ts_guess_scan_2-5_orca E -1288.396973542864
  Ir      0.582409     -0.726633      0.463106
  C       0.024542     -2.806365      0.347744
  C       0.111542     -2.359407      1.716834
  C       2.193451     -2.141665      0.758480
  C       1.287504     -2.645601     -0.249272
  C       1.480489     -2.004465      1.962074
  N      -1.045010      0.171175     -0.519514
  C      -2.316871      0.504358      0.140779
  C      -3.137089      1.543045     -0.606800
  H      -3.969996      1.852542      0.022989
  H      -3.572731      1.157308     -1.529981
  H      -2.556821      2.437193     -0.836991
  C      -3.115560     -0.769591      0.387364
  H      -2.024858      0.924167      1.104915
  H      -4.030083     -0.527618      0.926657
  H      -3.399589     -1.247471     -0.551193
  H      -2.565691     -1.488804      0.992683
  C      -0.836087      0.380047     -1.761459
  C       0.516667      0.157695     -2.226539
  H      -1.612678      0.742147     -2.429132
  C       1.620109      0.515480     -1.460944
  C       2.823504      0.102655     -2.102812
  S       0.940661     -0.614636     -3.689666
  C       2.609652     -0.509404     -3.297660
  H       1.540637      1.390886     -0.664938
  H       3.810550      0.303785     -1.712377
  H       3.345730     -0.888007     -3.990695
  H      -0.867896     -3.164616     -0.145030
  H      -0.675037     -2.393245      2.456344
  H       1.871757     -1.615207      2.891030
  O       1.317915      2.449854      0.267692
  O       0.533416      0.904927      1.672680
  C       0.911068      2.103727      1.374268
  C       0.851677      3.078507      2.516702
  H       0.815182      4.100097      2.148380
  H       1.754133      2.973463      3.122109
  H       0.002232      2.886143      3.168827
  H       3.238100     -1.911756      0.609886
  H       1.542444     -2.865515     -1.275802
39
Coordinates from ORCA-job reaction4-IEIP_ts_guess_scan_2-5_orca E -1288.396985332601
  Ir      0.583459     -0.727197      0.466919
  C       0.025805     -2.806637      0.349252
  C       0.109708     -2.360601      1.718787
  C       2.193932     -2.142367      0.765255
  C       1.290107     -2.645592     -0.244859
  C       1.478122     -2.005756      1.967263
  N      -1.043268      0.168938     -0.518073
  C      -2.315504      0.500808      0.142510
  C      -3.131419      1.547538     -0.598733
  H      -3.963153      1.856483      0.032904
  H      -3.568704      1.169840     -1.524444
  H      -2.547145      2.440521     -0.823141
  C      -3.117929     -0.772826      0.378314
  H      -2.024258      0.912912      1.110173
  H      -4.032905     -0.532490      0.917582
  H      -3.401213     -1.243237     -0.564225
  H      -2.570992     -1.497879      0.979358
  C      -0.836951      0.375831     -1.760949
  C       0.514595      0.156319     -2.228907
  H      -1.616228      0.734223     -2.427519
  C       1.617847      0.510925     -1.461481
  C       2.821558      0.102160     -2.104540
  S       0.939433     -0.609728     -3.694776
  C       2.608072     -0.504921     -3.302235
  H       1.537129      1.387673     -0.666015
  H       3.808447      0.302130     -1.713159
  H       3.344319     -0.879816     -3.997110
  H      -0.865452     -3.164440     -0.145992
  H      -0.678732     -2.394440      2.456313
  H       1.867379     -1.617025      2.897288
  O       1.312685      2.448952      0.263569
  O       0.536178      0.905746      1.675089
  C       0.910699      2.104321      1.372587
  C       0.852377      3.082494      2.512095
  H       0.809294      4.102713      2.140715
  H       1.758521      2.983585      3.113016
  H       0.007270      2.888211      3.169246
  H       3.239109     -1.913010      0.619589
  H       1.547181     -2.865168     -1.270925
39
Coordinates from ORCA-job reaction4-IEIP_ts_guess_scan_2-5_orca E -1288.396987433044
  Ir      0.583369     -0.726607      0.468491
  C       0.027161     -2.806381      0.349593
  C       0.109051     -2.360548      1.719334
  C       2.194379     -2.140796      0.768534
  C       1.292070     -2.644307     -0.242835
  C       1.476959     -2.004959      1.969670
  N      -1.043207      0.167858     -0.517386
  C      -2.315825      0.498578      0.143175
  C      -3.129625      1.549232     -0.594894
  H      -3.960953      1.857717      0.037513
  H      -3.567439      1.175540     -1.521973
  H      -2.543396      2.441686     -0.816227
  C      -3.119722     -0.775223      0.373086
  H      -2.025305      0.906610      1.112769
  H      -4.035069     -0.536260      0.912350
  H      -3.402351     -1.241691     -0.571601
  H      -2.573969     -1.503146      0.971749
  C      -0.837805      0.374161     -1.760558
  C       0.513383      0.155923     -2.229575
  H      -1.618140      0.731170     -2.426655
  C       1.616870      0.509274     -1.461821
  C       2.820401      0.101026     -2.105258
  S       0.938178     -0.607059     -3.697020
  C       2.606652     -0.504458     -3.303797
  H       1.536374      1.386003     -0.666006
  H       3.807394      0.299865     -1.713565
  H       3.342728     -0.878901     -3.999103
  H      -0.863179     -3.164679     -0.146934
  H      -0.680390     -2.394889      2.455769
  H       1.864829     -1.616264      2.900290
  O       1.312616      2.448501      0.262351
  O       0.535891      0.906964      1.675566
  C       0.909644      2.105376      1.371500
  C       0.854307      3.084174      2.510598
  H       0.810642      4.104175      2.138687
  H       1.761930      2.985459      3.109335
  H       0.010759      2.890461      3.169885
  H       3.239660     -1.910963      0.624362
  H       1.550498     -2.863431     -1.268660
39
Coordinates from ORCA-job reaction4-IEIP_ts_guess_scan_2-5_orca E -1288.396988420380
  Ir      0.583457     -0.726368      0.468881
  C       0.027878     -2.806456      0.349715
  C       0.108978     -2.360410      1.719476
  C       2.194709     -2.140137      0.769751
  C       1.292991     -2.643942     -0.242018
  C       1.476701     -2.004528      1.970547
  N      -1.043373      0.167546     -0.516945
  C      -2.316156      0.497583      0.143673
  C      -3.128850      1.550267     -0.592713
  H      -3.960034      1.858456      0.040028
  H      -3.566805      1.178633     -1.520549
  H      -2.541610      2.442467     -0.812367
  C      -3.120706     -0.776395      0.370413
  H      -2.026014      0.903366      1.114313
  H      -4.036189     -0.538342      0.909856
  H      -3.403086     -1.240672     -0.575425
  H      -2.575366     -1.505838      0.967605
  C      -0.838237      0.373882     -1.760171
  C       0.512897      0.155800     -2.229421
  H      -1.618822      0.730774     -2.426053
  C       1.616731      0.508837     -1.461985
  C       2.819916      0.100341     -2.105900
  S       0.937096     -0.607288     -3.697068
  C       2.605657     -0.504927     -3.304464
  H       1.536943      1.385426     -0.665965
  H       3.807120      0.299086     -1.714682
  H       3.341455     -0.879396     -4.000050
  H      -0.862069     -3.165156     -0.147215
  H      -0.680838     -2.394938      2.455505
  H       1.864012     -1.615782      2.901376
  O       1.315009      2.448316      0.262381
  O       0.535969      0.907708      1.675323
  C       0.911350      2.105707      1.371392
  C       0.854356      3.085093      2.509891
  H       0.810391      4.104856      2.137340
  H       1.761575      2.987339      3.109393
  H       0.010374      2.891230      3.168565
  H       3.240002     -1.910060      0.626056
  H       1.551959     -2.862890     -1.267749
