39
Coordinates from ORCA-job reaction4-IEIP_ts_guess_scan_11-5_orca E -1288.399803294099
  Ir      0.623861     -0.710971      0.413749
  C       0.138305     -2.826407      0.316108
  C      -0.006159     -2.370670      1.673541
  C       2.197930     -2.066985      1.038356
  C       1.481184     -2.640686     -0.072093
  C       1.276371     -1.931799      2.106618
  N      -1.060729      0.136362     -0.519512
  C      -2.326435      0.371658      0.192071
  C      -3.121669      1.551941     -0.346983
  H      -3.945059      1.761898      0.334117
  H      -3.568533      1.352184     -1.321860
  H      -2.515834      2.455688     -0.415667
  C      -3.154099     -0.909028      0.186137
  H      -2.034115      0.596128      1.218777
  H      -4.054295     -0.770004      0.783307
  H      -3.462910     -1.173559     -0.826003
  H      -2.607812     -1.751067      0.608103
  C      -0.911819      0.435071     -1.751175
  C       0.410582      0.240587     -2.259737
  H      -1.717028      0.839610     -2.356388
  C       1.461705      0.147899     -1.344425
  C       2.675706     -0.147863     -2.040254
  S       0.883463     -0.015052     -3.867123
  C       2.510857     -0.259063     -3.385724
  H       1.565423      1.143277     -0.606586
  H       3.641855     -0.214337     -1.561379
  H       3.266412     -0.448211     -4.133080
  H      -0.644354     -3.242208     -0.301733
  H      -0.897531     -2.420428      2.280323
  H       1.495553     -1.496262      3.071313
  O       1.618423      2.356228      0.146246
  O       0.552352      0.999850      1.551920
  C       1.065691      2.126968      1.230189
  C       0.998772      3.201548      2.277419
  H       0.977457      4.186481      1.818222
  H       1.896006      3.146066      2.896518
  H       0.138739      3.073194      2.929971
  H       3.252337     -1.840409      1.074488
  H       1.898769     -2.888440     -1.037032
39
Coordinates from ORCA-job reaction4-IEIP_ts_guess_scan_11-5_orca E -1288.399817134745
  Ir      0.622016     -0.703951      0.409408
  C       0.141708     -2.823079      0.316146
  C      -0.003124     -2.368081      1.673689
  C       2.198954     -2.057248      1.037409
  C       1.483949     -2.634267     -0.072360
  C       1.277044     -1.924203      2.105373
  N      -1.068091      0.135796     -0.521466
  C      -2.333409      0.370668      0.191128
  C      -3.131527      1.547529     -0.351185
  H      -3.955014      1.757804      0.329665
  H      -3.578352      1.343691     -1.325242
  H      -2.527774      2.452448     -0.423065
  C      -3.158576     -0.911593      0.190044
  H      -2.040718      0.599093      1.216878
  H      -4.058597     -0.772479      0.787457
  H      -3.467711     -1.180006     -0.820989
  H      -2.610363     -1.751234      0.614267
  C      -0.918545      0.430413     -1.758879
  C       0.406905      0.237628     -2.270222
  H      -1.725034      0.830868     -2.365042
  C       1.457036      0.148688     -1.353137
  C       2.672340     -0.148117     -2.046848
  S       0.882273     -0.020492     -3.876540
  C       2.509079     -0.264474     -3.392033
  H       1.564404      1.165638     -0.633331
  H       3.638280     -0.210941     -1.566874
  H       3.265732     -0.455965     -4.137582
  H      -0.639727     -3.242169     -0.301058
  H      -0.893836     -2.420662      2.281106
  H       1.495161     -1.487787      3.069911
  O       1.692921      2.326324      0.189535
  O       0.538461      1.006751      1.552741
  C       1.088505      2.120491      1.250628
  C       1.004503      3.202191      2.288904
  H       1.025617      4.184813      1.824680
  H       1.874095      3.128907      2.944519
  H       0.115617      3.097780      2.905969
  H       3.252928     -1.828708      1.073924
  H       1.902241     -2.882873     -1.036787
39
Coordinates from ORCA-job reaction4-IEIP_ts_guess_scan_11-5_orca E -1288.399153210526
  Ir      0.632012     -0.710178      0.410310
  C       0.140764     -2.831378      0.313195
  C       0.000114     -2.385582      1.674019
  C       2.200875     -2.077775      1.036038
  C       1.483417     -2.646957     -0.075824
  C       1.279697     -1.947007      2.104816
  N      -1.057764      0.141559     -0.508929
  C      -2.322007      0.377282      0.204888
  C      -3.112307      1.563151     -0.329292
  H      -3.936342      1.772189      0.351209
  H      -3.557504      1.369905     -1.306273
  H      -2.503533      2.465419     -0.392091
  C      -3.154698     -0.899946      0.191462
  H      -2.029589      0.595288      1.232996
  H      -4.054939     -0.760818      0.788543
  H      -3.463789     -1.157846     -0.822338
  H      -2.612249     -1.746492      0.609307
  C      -0.899430      0.449524     -1.752178
  C       0.430624      0.252716     -2.272012
  H      -1.702990      0.861010     -2.354680
  C       1.477099      0.130998     -1.352945
  C       2.688404     -0.182880     -2.047784
  S       0.906130      0.007765     -3.880403
  C       2.526342     -0.279380     -3.394446
  H       1.625143      1.173772     -0.650355
  H       3.652191     -0.268926     -1.566725
  H       3.281058     -0.477879     -4.139959
  H      -0.642598     -3.245354     -0.305079
  H      -0.889568     -2.438850      2.282661
  H       1.500415     -1.517279      3.071749
  O       1.501775      2.370426      0.120110
  O       0.543351      0.998132      1.572284
  C       1.013262      2.136029      1.234749
  C       0.966798      3.213715      2.278440
  H       0.893318      4.195146      1.816877
  H       1.895083      3.188213      2.851984
  H       0.144341      3.062928      2.972879
  H       3.256256     -1.856180      1.074542
  H       1.900208     -2.895271     -1.041005
39
Coordinates from ORCA-job reaction4-IEIP_ts_guess_scan_11-5_orca E -1288.400122357727
  Ir      0.623876     -0.711442      0.412616
  C       0.132179     -2.829602      0.325498
  C      -0.007359     -2.375033      1.683476
  C       2.194017     -2.072982      1.041720
  C       1.474662     -2.647602     -0.066208
  C       1.274268     -1.935367      2.111238
  N      -1.063142      0.135072     -0.515526
  C      -2.329014      0.368184      0.195069
  C      -3.123314      1.549373     -0.343426
  H      -3.948892      1.757346      0.335610
  H      -3.566782      1.351495     -1.320245
  H      -2.517777      2.453615     -0.408273
  C      -3.156236     -0.912694      0.184691
  H      -2.038242      0.590315      1.222678
  H      -4.057542     -0.775441      0.780607
  H      -3.463225     -1.174952     -0.828591
  H      -2.610413     -1.755569      0.605637
  C      -0.910322      0.438772     -1.752566
  C       0.416065      0.248363     -2.267616
  H      -1.715876      0.846021     -2.355268
  C       1.463781      0.137080     -1.349594
  C       2.679887     -0.155228     -2.044915
  S       0.893367      0.009517     -3.876029
  C       2.519494     -0.245283     -3.392445
  H       1.581597      1.158136     -0.625851
  H       3.644467     -0.229740     -1.563831
  H       3.277263     -0.425949     -4.139597
  H      -0.652294     -3.245862     -0.289749
  H      -0.896940     -2.423396      2.292823
  H       1.496235     -1.499508      3.075133
  O       1.610719      2.363542      0.140284
  O       0.553188      1.003574      1.551378
  C       1.063262      2.131027      1.228131
  C       1.000148      3.205768      2.274165
  H       0.971308      4.190341      1.814538
  H       1.902350      3.154379      2.886323
  H       0.145404      3.073701      2.932671
  H       3.249306     -1.850543      1.077073
  H       1.889901     -2.900240     -1.030887
39
Coordinates from ORCA-job reaction4-IEIP_ts_guess_scan_11-5_orca E -1288.400160082432
  Ir      0.623540     -0.711444      0.413044
  C       0.131060     -2.829019      0.328855
  C      -0.008806     -2.373832      1.686406
  C       2.192828     -2.072621      1.044922
  C       1.473847     -2.647957     -0.062660
  C       1.272599     -1.933983      2.113968
  N      -1.062826      0.134206     -0.516735
  C      -2.329188      0.365903      0.193539
  C      -3.125073      1.546467     -0.344109
  H      -3.950776      1.753129      0.335168
  H      -3.568545      1.348564     -1.320901
  H      -2.520592      2.451436     -0.408611
  C      -3.155268     -0.915771      0.183074
  H      -2.038632      0.587948      1.221311
  H      -4.056812     -0.779394      0.778860
  H      -3.461794     -1.178276     -0.830274
  H      -2.608706     -1.758089      0.604111
  C      -0.910662      0.439900     -1.752207
  C       0.414444      0.250970     -2.268204
  H      -1.716664      0.848171     -2.353540
  C       1.462133      0.134816     -1.350879
  C       2.677804     -0.155055     -2.047638
  S       0.892739      0.028503     -3.878499
  C       2.516700     -0.240352     -3.395432
  H       1.581662      1.159227     -0.631641
  H       3.642032     -0.235307     -1.566894
  H       3.273700     -0.420934     -4.143382
  H      -0.653261     -3.245567     -0.286370
  H      -0.898765     -2.421034      2.295302
  H       1.494407     -1.497213      3.077498
  O       1.632050      2.355095      0.148217
  O       0.552576      1.004711      1.549673
  C       1.070606      2.128636      1.230170
  C       1.002250      3.206676      2.272873
  H       0.982534      4.190227      1.810556
  H       1.898214      3.152758      2.893934
  H       0.140502      3.080342      2.923368
  H       3.248217     -1.850765      1.080769
  H       1.889296     -2.901886     -1.026896
39
Coordinates from ORCA-job reaction4-IEIP_ts_guess_scan_11-5_orca E -1288.400191910109
  Ir      0.622396     -0.714389      0.415107
  C       0.124967     -2.830458      0.338360
  C      -0.013878     -2.373255      1.695114
  C       2.188209     -2.077219      1.052396
  C       1.468370     -2.653449     -0.053844
  C       1.267882     -1.934543      2.121094
  N      -1.062360      0.132809     -0.517173
  C      -2.330251      0.360624      0.191921
  C      -3.128528      1.540602     -0.343571
  H      -3.955152      1.743814      0.335571
  H      -3.570968      1.343846     -1.321064
  H      -2.526071      2.447101     -0.405659
  C      -3.154073     -0.922557      0.178325
  H      -2.041301      0.581079      1.220579
  H      -4.056844     -0.788713      0.772837
  H      -3.458409     -1.184108     -0.835930
  H      -2.606701     -1.764445      0.599046
  C      -0.909605      0.444893     -1.750492
  C       0.413990      0.257530     -2.268583
  H      -1.715956      0.855747     -2.349566
  C       1.460499      0.126189     -1.351763
  C       2.676295     -0.156364     -2.051223
  S       0.893198      0.056518     -3.881134
  C       2.517263     -0.216012     -3.400717
  H       1.585862      1.156178     -0.637246
  H       3.639657     -0.246668     -1.570625
  H       3.275135     -0.383918     -4.150744
  H      -0.660073     -3.246832     -0.276059
  H      -0.904146     -2.416676      2.303816
  H       1.490695     -1.495836      3.083526
  O       1.652588      2.346961      0.149137
  O       0.555955      1.006793      1.545992
  C       1.081652      2.126316      1.227731
  C       1.009940      3.209920      2.264776
  H       0.995281      4.191284      1.797609
  H       1.902298      3.156997      2.891070
  H       0.144162      3.088858      2.910916
  H       3.244181     -1.858230      1.088517
  H       1.883211     -2.911198     -1.017307
39
Coordinates from ORCA-job reaction4-IEIP_ts_guess_scan_11-5_orca E -1288.400212550690
  Ir      0.620270     -0.720032      0.417888
  C       0.115981     -2.833701      0.352418
  C      -0.022153     -2.373093      1.707925
  C       2.180931     -2.084514      1.064455
  C       1.460518     -2.662521     -0.040104
  C       1.259849     -1.935584      2.132162
  N      -1.061662      0.129986     -0.517487
  C      -2.331466      0.351860      0.190406
  C      -3.132919      1.531311     -0.341477
  H      -3.960649      1.729342      0.337755
  H      -3.574090      1.336719     -1.320008
  H      -2.533268      2.439942     -0.399787
  C      -3.152108     -0.933335      0.171221
  H      -2.044838      0.569442      1.220416
  H      -4.056937     -0.803182      0.763401
  H      -3.452774     -1.193023     -0.844610
  H      -2.604075     -1.774946      0.591454
  C      -0.907177      0.454683     -1.747406
  C       0.415368      0.271965     -2.268120
  H      -1.713278      0.872197     -2.342191
  C       1.459203      0.112963     -1.352176
  C       2.675236     -0.158758     -2.055780
  S       0.898895      0.116733     -3.884038
  C       2.518937     -0.183011     -3.406824
  H       1.595294      1.148243     -0.639495
  H       3.636603     -0.269702     -1.575523
  H       3.277328     -0.337417     -4.159236
  H      -0.669654     -3.250222     -0.261147
  H      -0.913151     -2.410933      2.315874
  H       1.483583     -1.493558      3.092876
  O       1.666015      2.343310      0.140011
  O       0.561147      1.009785      1.538305
  C       1.090144      2.126031      1.217639
  C       1.021769      3.214194      2.250321
  H       1.005956      4.193476      1.778854
  H       1.916066      3.164052      2.874048
  H       0.157775      3.096055      2.899320
  H       3.237673     -1.869468      1.101506
  H       1.875025     -2.926098     -1.002107
39
Coordinates from ORCA-job reaction4-IEIP_ts_guess_scan_11-5_orca E -1288.400217421751
  Ir      0.620097     -0.722775      0.418058
  C       0.114200     -2.835537      0.355038
  C      -0.025396     -2.373515      1.710019
  C       2.178871     -2.087283      1.069148
  C       1.459607     -2.666023     -0.035736
  C       1.256350     -1.936360      2.135446
  N      -1.060560      0.129326     -0.517466
  C      -2.330008      0.350501      0.191207
  C      -3.132039      1.529867     -0.339869
  H      -3.959280      1.727361      0.340105
  H      -3.573865      1.335435     -1.318148
  H      -2.532753      2.438742     -0.398292
  C      -3.150410     -0.934791      0.171582
  H      -2.043076      0.567867      1.221178
  H      -4.055749     -0.804568      0.762979
  H      -3.450208     -1.194668     -0.844441
  H      -2.602835     -1.776370      0.592412
  C      -0.905748      0.458881     -1.746350
  C       0.416330      0.276283     -2.268115
  H      -1.711463      0.879528     -2.339370
  C       1.459413      0.107482     -1.353111
  C       2.675143     -0.160989     -2.058389
  S       0.900094      0.132289     -3.885024
  C       2.519627     -0.172121     -3.409796
  H       1.600559      1.143014     -0.639200
  H       3.636049     -0.278526     -1.578724
  H       3.278272     -0.320718     -4.163119
  H      -0.670729     -3.252347     -0.259220
  H      -0.917269     -2.409845      2.316768
  H       1.479202     -1.493184      3.095838
  O       1.665289      2.341392      0.135730
  O       0.561014      1.009025      1.535809
  C       1.090812      2.124596      1.214415
  C       1.021243      3.214666      2.244881
  H       1.001379      4.192755      1.771075
  H       1.917169      3.168749      2.866564
  H       0.159036      3.095396      2.895996
  H       3.235741     -1.873084      1.107632
  H       1.875263     -2.931263     -0.996771
39
Coordinates from ORCA-job reaction4-IEIP_ts_guess_scan_11-5_orca E -1288.400218007689
  Ir      0.619671     -0.723494      0.417627
  C       0.114476     -2.836143      0.355588
  C      -0.027651     -2.372621      1.709957
  C       2.177839     -2.086860      1.072940
  C       1.460677     -2.666790     -0.032699
  C       1.253361     -1.934984      2.137430
  N      -1.060782      0.129372     -0.517947
  C      -2.330139      0.349543      0.191277
  C      -3.133393      1.528204     -0.339519
  H      -3.960399      1.724924      0.340973
  H      -3.575578      1.333332     -1.317551
  H      -2.535035      2.437679     -0.398240
  C      -3.149614     -0.936299      0.171483
  H      -2.043158      0.567226      1.221138
  H      -4.055559     -0.806382      0.762031
  H      -3.448386     -1.196758     -0.844685
  H      -2.602047     -1.777470      0.593072
  C      -0.905685      0.461959     -1.746230
  C       0.416241      0.279029     -2.268403
  H      -1.711052      0.884424     -2.338354
  C       1.459095      0.105109     -1.354265
  C       2.674433     -0.162219     -2.060443
  S       0.899793      0.139711     -3.885931
  C       2.518921     -0.167708     -3.411973
  H       1.603648      1.139209     -0.637730
  H       3.635189     -0.283155     -1.581293
  H       3.277534     -0.314150     -4.165746
  H      -0.669093     -3.253968     -0.259705
  H      -0.920511     -2.408677      2.315267
  H       1.474430     -1.490772      3.097751
  O       1.668688      2.338686      0.135472
  O       0.558996      1.009528      1.534271
  C       1.090876      2.124296      1.212852
  C       1.023743      3.214339      2.243360
  H       1.003956      4.192261      1.769180
  H       1.920677      3.167983      2.863555
  H       0.162434      3.095973      2.895776
  H       3.234572     -1.872289      1.113149
  H       1.878203     -2.932857     -0.992696
39
Coordinates from ORCA-job reaction4-IEIP_ts_guess_scan_11-5_orca E -1288.400212896255
  Ir      0.619129     -0.723751      0.416576
  C       0.115983     -2.836561      0.355035
  C      -0.031013     -2.370704      1.708365
  C       2.176612     -2.084948      1.078706
  C       1.463527     -2.666804     -0.028536
  C       1.248463     -1.932125      2.139893
  N      -1.061409      0.130209     -0.518415
  C      -2.330713      0.348300      0.191639
  C      -3.136338      1.525654     -0.338533
  H      -3.963152      1.720661      0.342692
  H      -3.578851      1.330099     -1.316284
  H      -2.539846      2.436354     -0.397419
  C      -3.148306     -0.938685      0.171132
  H      -2.043774      0.566361      1.221388
  H      -4.055332     -0.809747      0.760262
  H      -3.445257     -1.199839     -0.845379
  H      -2.600537     -1.779188      0.593686
  C      -0.906023      0.467351     -1.745700
  C       0.415554      0.283746     -2.268690
  H      -1.710875      0.892764     -2.336314
  C       1.458445      0.102651     -1.356395
  C       2.672642     -0.164470     -2.064188
  S       0.898093      0.150501     -3.887350
  C       2.516163     -0.164208     -3.415763
  H       1.609099      1.132819     -0.633981
  H       3.633344     -0.290523     -1.586232
  H       3.274118     -0.309825     -4.170352
  H      -0.664953     -3.256296     -0.262285
  H      -0.925617     -2.406974      2.311081
  H       1.466006     -1.486445      3.100333
  O       1.681793      2.331864      0.139208
  O       0.555981      1.010358      1.532300
  C       1.096833      2.121974      1.213497
  C       1.026958      3.214043      2.241397
  H       1.008302      4.190741      1.764543
  H       1.922615      3.169418      2.863509
  H       0.164097      3.097379      2.891987
  H       3.232999     -1.869276      1.122090
  H       1.884608     -2.933688     -0.986762
39
Coordinates from ORCA-job reaction4-IEIP_ts_guess_scan_11-5_orca E -1288.400208977576
  Ir      0.618318     -0.721973      0.415765
  C       0.118503     -2.835665      0.353756
  C      -0.033131     -2.368398      1.706233
  C       2.176028     -2.080597      1.083106
  C       1.466992     -2.664307     -0.025649
  C       1.244495     -1.928234      2.141437
  N      -1.062711      0.131274     -0.518742
  C      -2.332403      0.347262      0.191107
  C      -3.140002      1.523307     -0.339035
  H      -3.967345      1.716588      0.342020
  H      -3.581824      1.327089     -1.316971
  H      -2.545261      2.435178     -0.397474
  C      -3.148009     -0.940980      0.169573
  H      -2.046080      0.565619      1.220973
  H      -4.055966     -0.813514      0.757608
  H      -3.443366     -1.202382     -0.847337
  H      -2.599633     -1.780868      0.592527
  C      -0.907331      0.470115     -1.745465
  C       0.413852      0.286373     -2.269059
  H      -1.712172      0.896499     -2.335386
  C       1.457162      0.102904     -1.358139
  C       2.670189     -0.165925     -2.066949
  S       0.894689      0.152848     -3.888460
  C       2.512414     -0.164854     -3.418458
  H       1.612435      1.129514     -0.631381
  H       3.631143     -0.293662     -1.589975
  H       3.269601     -0.311688     -4.173584
  H      -0.659859     -3.257440     -0.265401
  H      -0.929195     -2.405906      2.306708
  H       1.458478     -1.481575      3.102222
  O       1.695416      2.325696      0.145200
  O       0.552778      1.011956      1.531449
  C       1.102187      2.120405      1.215647
  C       1.032742      3.213126      2.242801
  H       1.016911      4.189490      1.765071
  H       1.927459      3.167410      2.866175
  H       0.168569      3.098817      2.891997
  H       3.231942     -1.863190      1.129281
  H       1.891358     -2.931121     -0.982452
39
Coordinates from ORCA-job reaction4-IEIP_ts_guess_scan_11-5_orca E -1288.400207885636
  Ir      0.617527     -0.719772      0.415535
  C       0.121287     -2.834748      0.352419
  C      -0.034130     -2.367337      1.704449
  C       2.175912     -2.076119      1.086320
  C       1.470342     -2.661239     -0.023759
  C       1.241620     -1.925314      2.142547
  N      -1.064325      0.131821     -0.518817
  C      -2.334671      0.346196      0.190222
  C      -3.143039      1.521997     -0.339339
  H      -3.971175      1.713762      0.341151
  H      -3.583787      1.326264     -1.317855
  H      -2.549143      2.434500     -0.396328
  C      -3.149235     -0.942724      0.166740
  H      -2.049236      0.563804      1.220526
  H      -4.057668     -0.816853      0.754387
  H      -3.443768     -1.203009     -0.850705
  H      -2.600400     -1.782755      0.588809
  C      -0.909010      0.470225     -1.745463
  C       0.411935      0.287098     -2.269371
  H      -1.714147      0.896128     -2.335363
  C       1.455675      0.104347     -1.359051
  C       2.668015     -0.166316     -2.068283
  S       0.891411      0.150783     -3.889063
  C       2.509165     -0.167380     -3.419685
  H       1.613766      1.128751     -0.629925
  H       3.629329     -0.293267     -1.591843
  H       3.265791     -0.316032     -4.175023
  H      -0.654913     -3.258232     -0.268268
  H      -0.931292     -2.406621      2.303172
  H       1.452518     -1.478269      3.103838
  O       1.705138      2.322278      0.149792
  O       0.551132      1.013923      1.531452
  C       1.107110      2.119713      1.218001
  C       1.039209      3.212737      2.245010
  H       1.023717      4.189017      1.767034
  H       1.934575      3.166857      2.867441
  H       0.175476      3.099281      2.894902
  H       3.231364     -1.856979      1.134755
  H       1.897298     -2.927328     -0.979620
39
Coordinates from ORCA-job reaction4-IEIP_ts_guess_scan_11-5_orca E -1288.400209858358
  Ir      0.616884     -0.718463      0.415702
  C       0.123341     -2.834366      0.351290
  C      -0.034997     -2.367711      1.703225
  C       2.175646     -2.073145      1.088947
  C       1.472836     -2.659079     -0.022318
  C       1.239150     -1.924102      2.143626
  N      -1.065383      0.131583     -0.518727
  C      -2.336089      0.345259      0.189755
  C      -3.144042      1.521811     -0.338753
  H      -3.972629      1.712803      0.341386
  H      -3.584152      1.327376     -1.317814
  H      -2.549916      2.434252     -0.394193
  C      -3.150673     -0.943649      0.164353
  H      -2.051174      0.561535      1.220509
  H      -4.058965     -0.818931      0.752455
  H      -3.445428     -1.202120     -0.853501
  H      -2.601582     -1.784399      0.584719
  C      -0.910290      0.468842     -1.745576
  C       0.410550      0.286592     -2.269656
  H      -1.715855      0.893751     -2.335672
  C       1.454492      0.105180     -1.359359
  C       2.666712     -0.166174     -2.068679
  S       0.889468      0.148414     -3.889331
  C       2.507464     -0.168779     -3.420013
  H       1.614013      1.129159     -0.629976
  H       3.628252     -0.291855     -1.592361
  H       3.263920     -0.318113     -4.175391
  H      -0.651191     -3.258869     -0.270777
  H      -0.933120     -2.408453      2.300407
  H       1.447595     -1.477030      3.105444
  O       1.708759      2.321573      0.151042
  O       0.550599      1.015336      1.531249
  C       1.109513      2.119732      1.218765
  C       1.043774      3.212744      2.246046
  H       1.025217      4.189011      1.768112
  H       1.941618      3.168411      2.865015
  H       0.182555      3.098160      2.899037
  H       3.230758     -1.852827      1.139310
  H       1.901742     -2.924269     -0.977561
39
Coordinates from ORCA-job reaction4-IEIP_ts_guess_scan_11-5_orca E -1288.400213338277
  Ir      0.616188     -0.717686      0.416157
  C       0.126296     -2.834536      0.349367
  C      -0.036693     -2.369469      1.701320
  C       2.175100     -2.070050      1.093488
  C       1.476648     -2.656868     -0.019882
  C       1.235022     -1.923675      2.145636
  N      -1.066533      0.130631     -0.518465
  C      -2.337432      0.343837      0.189761
  C      -3.143891      1.522405     -0.336472
  H      -3.972713      1.712721      0.343558
  H      -3.583602      1.330749     -1.316258
  H      -2.548594      2.434214     -0.389473
  C      -3.152963     -0.944435      0.161223
  H      -2.052897      0.557517      1.221170
  H      -4.060607     -0.821082      0.750598
  H      -3.448809     -1.199514     -0.857183
  H      -2.603823     -1.786826      0.578311
  C      -0.911913      0.466532     -1.745671
  C       0.408853      0.285358     -2.269989
  H      -1.718105      0.890040     -2.335989
  C       1.452996      0.105258     -1.359605
  C       2.665319     -0.165918     -2.069084
  S       0.887467      0.146287     -3.889583
  C       2.505863     -0.169328     -3.420360
  H       1.614261      1.129495     -0.630734
  H       3.627070     -0.290236     -1.592820
  H       3.262266     -0.318462     -4.175833
  H      -0.645614     -3.260201     -0.275154
  H      -0.936557     -2.412085      2.295740
  H       1.439629     -1.476716      3.108332
  O       1.711264      2.321465      0.150685
  O       0.550360      1.016978      1.530419
  C       1.111688      2.120036      1.218461
  C       1.048675      3.213298      2.245776
  H       1.022126      4.189201      1.767403
  H       1.951660      3.173824      2.857557
  H       0.192946      3.095320      2.905289
  H       3.229746     -1.848329      1.147186
  H       1.908673     -2.920561     -0.974145
39
Coordinates from ORCA-job reaction4-IEIP_ts_guess_scan_11-5_orca E -1288.400216441191
  Ir      0.615825     -0.717818      0.416672
  C       0.129653     -2.835194      0.346390
  C      -0.039179     -2.372177      1.698444
  C       2.174343     -2.067807      1.099208
  C       1.481263     -2.655183     -0.017044
  C       1.229724     -1.924365      2.148037
  N      -1.067199      0.129371     -0.517915
  C      -2.337930      0.342457      0.190695
  C      -3.142225      1.523871     -0.332420
  H      -3.970899      1.713762      0.347919
  H      -3.582007      1.335897     -1.312881
  H      -2.545110      2.434635     -0.382705
  C      -3.155121     -0.944674      0.158530
  H      -2.053378      0.552887      1.222746
  H      -4.061695     -0.822580      0.749801
  H      -3.452789     -1.195556     -0.860394
  H      -2.606139     -1.789276      0.571432
  C      -0.913324      0.464297     -1.745499
  C       0.407373      0.283733     -2.270163
  H      -1.720135      0.886583     -2.335880
  C       1.451786      0.104402     -1.359825
  C       2.664235     -0.165956     -2.069618
  S       0.885810      0.144944     -3.889729
  C       2.504629     -0.169250     -3.420853
  H       1.614721      1.129231     -0.631888
  H       3.626145     -0.289472     -1.593443
  H       3.260970     -0.317549     -4.176550
  H      -0.639026     -3.261800     -0.281456
  H      -0.941426     -2.416562      2.289109
  H       1.429641     -1.477770      3.111885
  O       1.712591      2.321464      0.149022
  O       0.550426      1.018176      1.529022
  C       1.112991      2.120405      1.217018
  C       1.051594      3.214372      2.243738
  H       1.012955      4.189343      1.764176
  H       1.961209      3.183163      2.846094
  H       0.203323      3.091019      2.911761
  H       3.228487     -1.844870      1.157349
  H       1.917257     -2.916966     -0.970043
39
Coordinates from ORCA-job reaction4-IEIP_ts_guess_scan_11-5_orca E -1288.400218764338
  Ir      0.616115     -0.718882      0.417254
  C       0.133590     -2.836316      0.342066
  C      -0.042300     -2.375784      1.694288
  C       2.173574     -2.066710      1.106004
  C       1.486878     -2.654103     -0.013990
  C       1.223427     -1.926415      2.150663
  N      -1.067226      0.128038     -0.516852
  C      -2.337465      0.341307      0.192736
  C      -3.138945      1.526397     -0.326383
  H      -3.967185      1.715997      0.354587
  H      -3.579106      1.343077     -1.307546
  H      -2.539452      2.435759     -0.373499
  C      -3.157094     -0.944128      0.156254
  H      -2.052552      0.547791      1.225435
  H      -4.062277     -0.823167      0.749884
  H      -3.457159     -1.189961     -0.863195
  H      -2.608641     -1.791560      0.564111
  C      -0.914363      0.462442     -1.744780
  C       0.406211      0.281774     -2.269990
  H      -1.721717      0.883918     -2.334994
  C       1.451083      0.102731     -1.359990
  C       2.663504     -0.166540     -2.070349
  S       0.884324      0.144012     -3.889660
  C       2.503568     -0.169204     -3.421540
  H       1.615337      1.128318     -0.633305
  H       3.625579     -0.289831     -1.594423
  H       3.259692     -0.316447     -4.177657
  H      -0.631238     -3.263572     -0.290019
  H      -0.947573     -2.421793      2.280183
  H       1.417814     -1.480637      3.116012
  O       1.712917      2.321405      0.146334
  O       0.551201      1.018709      1.527394
  C       1.113449      2.120816      1.214603
  C       1.051761      3.216145      2.239829
  H       0.996184      4.189330      1.758144
  H       1.969392      3.197543      2.830409
  H       0.213132      3.085095      2.918361
  H       3.227192     -1.842873      1.169784
  H       1.927741     -2.913489     -0.965426
39
Coordinates from ORCA-job reaction4-IEIP_ts_guess_scan_11-5_orca E -1288.400219389821
  Ir      0.617137     -0.720334      0.417686
  C       0.136734     -2.837382      0.337725
  C      -0.044997     -2.378874      1.690103
  C       2.173062     -2.067237      1.111477
  C       1.491555     -2.653981     -0.011871
  C       1.218276     -1.929170      2.152504
  N      -1.066452      0.127373     -0.515452
  C      -2.336122      0.340915      0.195223
  C      -3.135287      1.529127     -0.320400
  H      -3.963097      1.718443      0.361192
  H      -3.575814      1.349802     -1.302128
  H      -2.533880      2.437362     -0.364823
  C      -3.157976     -0.942950      0.155097
  H      -2.050708      0.544115      1.228387
  H      -4.062060     -0.822712      0.750553
  H      -3.459963     -1.184645     -0.864768
  H      -2.610243     -1.792816      0.558889
  C      -0.914478      0.461851     -1.743548
  C       0.405877      0.280347     -2.269440
  H      -1.722067      0.883401     -2.333355
  C       1.451303      0.100996     -1.360065
  C       2.663400     -0.167717     -2.071125
  S       0.883363      0.143545     -3.889369
  C       2.502870     -0.169750     -3.422256
  H       1.615861      1.127184     -0.634471
  H       3.625640     -0.291440     -1.595630
  H       3.258574     -0.316475     -4.178889
  H      -0.624954     -3.264744     -0.298057
  H      -0.952882     -2.425793      2.271882
  H       1.408204     -1.484538      3.119261
  O       1.712085      2.321330      0.143714
  O       0.552828      1.018242      1.526442
  C       1.112963      2.121097      1.212241
  C       1.048857      3.218056      2.235493
  H       0.976472      4.189035      1.751420
  H       1.973291      3.212847      2.815600
  H       0.219120      3.079230      2.923240
  H       3.226325     -1.843234      1.180215
  H       1.936551     -2.911313     -0.961955
39
Coordinates from ORCA-job reaction4-IEIP_ts_guess_scan_11-5_orca E -1288.400219000227
  Ir      0.618541     -0.721578      0.417932
  C       0.138731     -2.838169      0.334389
  C      -0.046799     -2.380848      1.686840
  C       2.172870     -2.068698      1.114994
  C       1.494671     -2.654534     -0.010721
  C       1.214983     -1.931735      2.153487
  N      -1.065275      0.127474     -0.514025
  C      -2.334551      0.341155      0.197380
  C      -3.132341      1.531369     -0.315848
  H      -3.959970      1.720254      0.366092
  H      -3.572949      1.354729     -1.298021
  H      -2.529903      2.439022     -0.358290
  C      -3.157924     -0.941627      0.154660
  H      -2.048778      0.542177      1.230846
  H      -4.061531     -0.821735      0.750920
  H      -3.460788     -1.180676     -0.865565
  H      -2.610974     -1.793128      0.556066
  C      -0.913843      0.462430     -1.742091
  C       0.406186      0.279837     -2.268729
  H      -1.721378      0.884822     -2.331341
  C       1.452142      0.099663     -1.360126
  C       2.663668     -0.169244     -2.071933
  S       0.882748      0.143575     -3.889028
  C       2.502329     -0.170803     -3.422986
  H       1.616134      1.126198     -0.635176
  H       3.626085     -0.293805     -1.597015
  H       3.257488     -0.317693     -4.180128
  H      -0.620941     -3.265346     -0.303910
  H      -0.956431     -2.428063      2.265876
  H       1.402093     -1.488265      3.121322
  O       1.710563      2.321275      0.141798
  O       0.555046      1.017109      1.526513
  C       1.112082      2.121167      1.210635
  C       1.044683      3.219635      2.231977
  H       0.958283      4.188500      1.745820
  H       1.974034      3.226145      2.804118
  H       0.221935      3.074221      2.926647
  H       3.225972     -1.845055      1.187208
  H       1.942478     -2.910564     -0.959845
39
Coordinates from ORCA-job reaction4-IEIP_ts_guess_scan_11-5_orca E -1288.400218593173
  Ir      0.619748     -0.722229      0.418011
  C       0.139789     -2.838632      0.332438
  C      -0.047788     -2.381765      1.684857
  C       2.172835     -2.069976      1.116898
  C       1.496385     -2.655167     -0.010135
  C       1.213218     -1.933385      2.153926
  N      -1.064217      0.128011     -0.512947
  C      -2.333347      0.341639      0.198689
  C      -3.130626      1.532786     -0.313232
  H      -3.958322      1.721125      0.368772
  H      -3.571059      1.357547     -1.295732
  H      -2.527922      2.440330     -0.354408
  C      -3.157435     -0.940628      0.154385
  H      -2.047454      0.541472      1.232355
  H      -4.061111     -0.820902      0.750581
  H      -3.460235     -1.178356     -0.866167
  H      -2.611121     -1.792965      0.554871
  C      -0.912983      0.463445     -1.740885
  C       0.406667      0.280048     -2.268194
  H      -1.720350      0.886888     -2.329608
  C       1.452994      0.098919     -1.360255
  C       2.663923     -0.170689     -2.072695
  S       0.882256      0.143815     -3.888846
  C       2.501791     -0.172001     -3.423662
  H       1.616054      1.125622     -0.635486
  H       3.626510     -0.296068     -1.598343
  H       3.256451     -0.319485     -4.181188
  H      -0.618801     -3.265688     -0.307213
  H      -0.958327     -2.429067      2.262471
  H       1.398838     -1.490756      3.122433
  O       1.708844      2.321326      0.140722
  O       0.557196      1.015892      1.527350
  C       1.111317      2.121041      1.209995
  C       1.041389      3.220570      2.230006
  H       0.944781      4.187855      1.742518
  H       1.974096      3.235679      2.796460
  H       0.223705      3.070300      2.929557
  H       3.225881     -1.846730      1.191094
  H       1.945799     -2.910633     -0.958654
