! Opt PBEh-3c
%geom Constraints
{ B 0 20 2.3857142857142857 C }
{ B 24 30 1.342857142857143 C }
    end
end
%output 
xyzfile=True 
end 
%scf 
maxiter 250 
end
%output
Print[P_Hirshfeld] = 1
end
% maxcore
4000
*xyz 1 1
Ir   0.59426259  -0.73329382   0.49198780 
C    0.05931216  -2.82232193   0.37498393 
C    0.02304591  -2.36057434   1.73936046 
C    2.18266754  -2.13086966   0.96050320 
C    1.37009129  -2.65933026  -0.11105930 
C    1.35808506  -1.98158702   2.09253406 
N   -1.03829957   0.13229746  -0.50546193 
C   -2.31818831   0.40988705   0.16858536 
C   -3.09736046   1.55864063  -0.45398470 
H   -3.92860316   1.81717547   0.20057282 
H   -3.53264967   1.30161823  -1.42064711 
H   -2.48372585   2.45218173  -0.57046921 
C   -3.15054698  -0.86562502   0.22910090 
H   -2.04309755   0.69479869   1.18518109 
H   -4.06716056  -0.68119613   0.78760246 
H   -3.43117871  -1.20216077  -0.76982744 
H   -2.62184086  -1.67548875   0.72951361 
C   -0.86244755   0.37164790  -1.75051015 
C    0.47137837   0.19806575  -2.26463373 
H   -1.67023195   0.72669377  -2.38414432 
C    1.57584382   0.36498912  -1.43887525 
C    2.77079854   0.03342446  -2.13640616 
S    0.88494303  -0.30021907  -3.84220200 
C    2.54825359  -0.33273902  -3.42923843 
H    1.55824715   1.29376516  -0.60488712 
H    3.76093601   0.11907452  -1.71291652 
H    3.27946965  -0.60004014  -4.17710702 
H   -0.78040049  -3.20167575  -0.18931038 
H   -0.82416932  -2.39343664   2.40822927 
H    1.66122761  -1.57148893   3.04541376 
O    1.47091469   2.37987809   0.20416694 
O    0.54316576   0.95430706   1.64430951 
C    0.99210936   2.10848926   1.31257410 
C    0.94154144   3.15480607   2.38751337 
H    0.90281733   4.15146582   1.95614890 
H    1.85176046   3.08865619   2.98679207 
H    0.09797923   3.00203482   3.05659226 
H    3.23789047  -1.90900607   0.90916493 
H    1.71252997  -2.89365392  -1.10840983 
*
