39
Coordinates from ORCA-job reaction4-IEIP_ts_guess_scan_12-11_orca E -1288.403441668136
  Ir      0.614486     -0.729964      0.414068
  C       0.142589     -2.842726      0.334862
  C      -0.085141     -2.389426      1.683023
  C       2.150632     -2.063890      1.174070
  C       1.511459     -2.657410      0.033099
  C       1.156578     -1.930711      2.185098
  N      -1.072485      0.116768     -0.513753
  C      -2.345945      0.304013      0.197966
  C      -3.144268      1.509400     -0.278108
  H      -3.975836      1.672785      0.405510
  H      -3.578760      1.366792     -1.268463
  H      -2.543249      2.418996     -0.285856
  C      -3.166734     -0.977852      0.109392
  H      -2.066911      0.472720      1.239215
  H      -4.074022     -0.880480      0.704269
  H      -3.463040     -1.183678     -0.919977
  H      -2.619739     -1.841414      0.484144
  C      -0.923344      0.478429     -1.729054
  C       0.392127      0.304862     -2.251062
  H      -1.730841      0.912570     -2.309823
  C       1.421580      0.050429     -1.343712
  C       2.636917     -0.188230     -2.056739
  S       0.889748      0.281329     -3.873526
  C       2.494442     -0.089714     -3.407871
  H       1.628173      1.152454     -0.614804
  H       3.591168     -0.366397     -1.582254
  H       3.259614     -0.196332     -4.161827
  H      -0.592942     -3.279763     -0.324579
  H      -1.012014     -2.439902      2.233576
  H       1.310982     -1.483621      3.157040
  O       1.749993      2.285574      0.095452
  O       0.577669      1.035496      1.499288
  C       1.149585      2.116391      1.174593
  C       1.119841      3.240852      2.166349
  H       0.998504      4.195623      1.659596
  H       2.076338      3.274527      2.690771
  H       0.332093      3.104411      2.901635
  H       3.200546     -1.838907      1.279907
  H       1.989576     -2.914817     -0.900774
39
Coordinates from ORCA-job reaction4-IEIP_ts_guess_scan_12-11_orca E -1288.403682176583
  Ir      0.613792     -0.730458      0.412089
  C       0.141750     -2.845216      0.336475
  C      -0.083659     -2.393715      1.685502
  C       2.149996     -2.065937      1.173325
  C       1.509997     -2.660062      0.033209
  C       1.157088     -1.933777      2.185102
  N      -1.075657      0.114924     -0.512082
  C      -2.348584      0.302976      0.200612
  C      -3.145581      1.509237     -0.275443
  H      -3.977176      1.673249      0.407971
  H      -3.579869      1.367255     -1.265997
  H      -2.543763      2.418328     -0.282871
  C      -3.170792     -0.977928      0.111850
  H      -2.069347      0.471226      1.241897
  H      -4.077822     -0.879763      0.706987
  H      -3.467669     -1.183145     -0.917489
  H      -2.624700     -1.842215      0.486200
  C      -0.923434      0.477882     -1.732425
  C       0.395782      0.306718     -2.256749
  H      -1.730443      0.913144     -2.312971
  C       1.421574      0.046304     -1.346982
  C       2.638865     -0.191371     -2.057774
  S       0.898593      0.291455     -3.877971
  C       2.500787     -0.086559     -3.408994
  H       1.632464      1.158994     -0.618285
  H       3.591553     -0.372649     -1.581146
  H       3.268151     -0.191662     -4.160855
  H      -0.594415     -3.282866     -0.321881
  H      -1.009445     -2.445281      2.237669
  H       1.312468     -1.487098      3.157067
  O       1.753890      2.291841      0.092475
  O       0.576501      1.037694      1.499035
  C       1.150680      2.119492      1.173623
  C       1.118752      3.244097      2.164769
  H       0.997682      4.198654      1.657489
  H       2.074317      3.278337      2.690822
  H       0.329774      3.107281      2.898569
  H       3.200115     -1.841696      1.278804
  H       1.987154     -2.918499     -0.900887
39
Coordinates from ORCA-job reaction4-IEIP_ts_guess_scan_12-11_orca E -1288.403778231719
  Ir      0.612678     -0.730825      0.411725
  C       0.138215     -2.846226      0.341768
  C      -0.084729     -2.396184      1.691388
  C       2.147411     -2.068224      1.175817
  C       1.506301     -2.662763      0.036924
  C       1.155482     -1.936080      2.188335
  N      -1.076436      0.113640     -0.510592
  C      -2.349082      0.301273      0.201105
  C      -3.145689      1.507119     -0.276599
  H      -3.978634      1.671162      0.405211
  H      -3.577892      1.364536     -1.267969
  H      -2.544151      2.416381     -0.283360
  C      -3.170606     -0.980037      0.112552
  H      -2.070286      0.470027      1.242410
  H      -4.077890     -0.882149      0.707387
  H      -3.466988     -1.185830     -0.916778
  H      -2.624034     -1.843841      0.487484
  C      -0.923181      0.478987     -1.732519
  C       0.396579      0.309951     -2.260546
  H      -1.731033      0.915078     -2.311061
  C       1.419380      0.039482     -1.350678
  C       2.638300     -0.193706     -2.060376
  S       0.902190      0.305103     -3.881041
  C       2.503893     -0.074117     -3.410835
  H       1.636696      1.163731     -0.623888
  H       3.589719     -0.379784     -1.583014
  H       3.273424     -0.171891     -4.161457
  H      -0.598941     -3.283863     -0.315463
  H      -1.009787     -2.447220      2.244781
  H       1.312184     -1.489363      3.160070
  O       1.757895      2.295153      0.089176
  O       0.576714      1.038827      1.496835
  C       1.152052      2.120086      1.171109
  C       1.120926      3.244498      2.161668
  H       1.000876      4.199123      1.654268
  H       2.076259      3.277864      2.688253
  H       0.331380      3.108041      2.894843
  H       3.197911     -1.845735      1.281077
  H       1.982261     -2.923033     -0.897270
39
Coordinates from ORCA-job reaction4-IEIP_ts_guess_scan_12-11_orca E -1288.403837375464
  Ir      0.611771     -0.731984      0.412063
  C       0.134754     -2.847225      0.348595
  C      -0.086717     -2.398468      1.698632
  C       2.144600     -2.070593      1.180835
  C       1.503082     -2.665640      0.042863
  C       1.152915     -1.938233      2.193716
  N      -1.076541      0.111982     -0.510712
  C      -2.349812      0.297982      0.199802
  C      -3.147655      1.503374     -0.277210
  H      -3.981547      1.665729      0.403853
  H      -3.578612      1.361190     -1.269143
  H      -2.547239      2.413385     -0.282488
  C      -3.170200     -0.984021      0.110482
  H      -2.071781      0.466220      1.241444
  H      -4.077759     -0.887289      0.705109
  H      -3.465958     -1.189656     -0.919041
  H      -2.622805     -1.847324      0.485291
  C      -0.922511      0.481572     -1.731855
  C       0.396681      0.315688     -2.262805
  H      -1.731067      0.919957     -2.307467
  C       1.416630      0.031436     -1.354175
  C       2.637053     -0.195459     -2.063295
  S       0.907540      0.336878     -3.881537
  C       2.504958     -0.061907     -3.412788
  H       1.641736      1.167829     -0.631099
  H       3.586576     -0.391925     -1.586363
  H       3.275425     -0.155709     -4.162972
  H      -0.603001     -3.284839     -0.307975
  H      -1.011627     -2.448288      2.252343
  H       1.310456     -1.491100      3.165136
  O       1.762532      2.297095      0.085443
  O       0.578683      1.040780      1.493580
  C       1.154963      2.120452      1.167820
  C       1.125791      3.245824      2.156901
  H       1.007086      4.200221      1.648770
  H       2.081186      3.278225      2.683463
  H       0.336037      3.110875      2.890131
  H       3.195433     -1.849991      1.286549
  H       1.978314     -2.927854     -0.891157
39
Coordinates from ORCA-job reaction4-IEIP_ts_guess_scan_12-11_orca E -1288.403885683185
  Ir      0.610900     -0.735734      0.413270
  C       0.129906     -2.849383      0.356701
  C      -0.091076     -2.400763      1.706755
  C       2.140521     -2.075172      1.188363
  C       1.499032     -2.670792      0.051069
  C       1.148348     -1.941146      2.201070
  N      -1.075707      0.109981     -0.511473
  C      -2.349918      0.294250      0.198230
  C      -3.149050      1.499798     -0.276382
  H      -3.983204      1.659875      0.404834
  H      -3.579797      1.359172     -1.268619
  H      -2.549572      2.410464     -0.279694
  C      -3.169765     -0.988012      0.107141
  H      -2.072635      0.461036      1.240383
  H      -4.077622     -0.892421      0.701473
  H      -3.464834     -1.192578     -0.922803
  H      -2.622059     -1.851355      0.481244
  C      -0.921548      0.483901     -1.730533
  C       0.395636      0.318209     -2.263807
  H      -1.730822      0.924148     -2.303694
  C       1.413458      0.020246     -1.357210
  C       2.635915     -0.196172     -2.065881
  S       0.909192      0.356158     -3.881405
  C       2.507849     -0.037236     -3.413173
  H       1.645339      1.168662     -0.641002
  H       3.584094     -0.400418     -1.589664
  H       3.281056     -0.115951     -4.162319
  H      -0.608211     -3.286661     -0.299708
  H      -1.016553     -2.447896      2.259704
  H       1.306370     -1.492961      3.171930
  O       1.764865      2.296447      0.078081
  O       0.583260      1.041688      1.489063
  C       1.158721      2.119609      1.161858
  C       1.133017      3.247348      2.148506
  H       1.013923      4.200920      1.638981
  H       2.089658      3.279949      2.672804
  H       0.344912      3.114387      2.883929
  H       3.191739     -1.856958      1.295095
  H       1.974034     -2.935446     -0.882378
39
Coordinates from ORCA-job reaction4-IEIP_ts_guess_scan_12-11_orca E -1288.403910269104
  Ir      0.610392     -0.738276      0.413666
  C       0.128707     -2.850343      0.358660
  C      -0.094427     -2.401102      1.708270
  C       2.138272     -2.076167      1.193060
  C       1.498687     -2.672503      0.055194
  C       1.144373     -1.941302      2.204454
  N      -1.075003      0.108557     -0.512219
  C      -2.349266      0.291933      0.198073
  C      -3.148770      1.497890     -0.274677
  H      -3.982360      1.656861      0.407447
  H      -3.580358      1.358523     -1.266765
  H      -2.549457      2.408683     -0.277217
  C      -3.169004     -0.990285      0.105637
  H      -2.071907      0.457681      1.240384
  H      -4.076946     -0.895221      0.699883
  H      -3.463859     -1.193889     -0.924571
  H      -2.621375     -1.854003      0.479019
  C      -0.921412      0.485159     -1.729461
  C       0.394941      0.319679     -2.262493
  H      -1.730528      0.927514     -2.301385
  C       1.412670      0.016401     -1.357496
  C       2.635593     -0.195319     -2.066542
  S       0.910619      0.371653     -3.879056
  C       2.507763     -0.029262     -3.413143
  H       1.646122      1.168011     -0.646293
  H       3.583135     -0.404926     -1.591453
  H       3.280976     -0.104836     -4.162622
  H      -0.608364     -3.287836     -0.298795
  H      -1.021148     -2.446942      2.259237
  H       1.301027     -1.492231      3.175109
  O       1.764383      2.295396      0.073625
  O       0.585689      1.041549      1.485626
  C       1.159951      2.119105      1.157846
  C       1.136195      3.247804      2.143957
  H       1.016207      4.201072      1.634130
  H       2.093821      3.280645      2.666442
  H       0.349550      3.115490      2.881088
  H       3.189367     -1.858176      1.301467
  H       1.975113     -2.937798     -0.877347
39
Coordinates from ORCA-job reaction4-IEIP_ts_guess_scan_12-11_orca E -1288.403924211829
  Ir      0.610224     -0.740807      0.413886
  C       0.129132     -2.851746      0.358855
  C      -0.097243     -2.401419      1.707797
  C       2.136750     -2.076484      1.197480
  C       1.500027     -2.673923      0.058623
  C       1.140434     -1.941011      2.206842
  N      -1.075007      0.107338     -0.512364
  C      -2.349141      0.290030      0.198827
  C      -3.148136      1.497287     -0.271359
  H      -3.981094      1.655297      0.411777
  H      -3.580597      1.360195     -1.263392
  H      -2.548383      2.407798     -0.272468
  C      -3.169501     -0.991570      0.103757
  H      -2.071556      0.453831      1.241365
  H      -4.077597     -0.897010      0.697855
  H      -3.464150     -1.193093     -0.926917
  H      -2.622628     -1.856386      0.475638
  C      -0.921725      0.485964     -1.728538
  C       0.394559      0.319904     -2.260832
  H      -1.730221      0.929970     -2.300055
  C       1.412760      0.014594     -1.356850
  C       2.635732     -0.194201     -2.066560
  S       0.910889      0.378595     -3.876989
  C       2.507721     -0.024231     -3.412777
  H       1.645922      1.167375     -0.650996
  H       3.583176     -0.406182     -1.592356
  H       3.280824     -0.097369     -4.162615
  H      -0.606190     -3.290059     -0.300018
  H      -1.025439     -2.446646      2.256335
  H       1.294811     -1.491115      3.177458
  O       1.762809      2.295125      0.068576
  O       0.588337      1.041161      1.482647
  C       1.161083      2.119079      1.153762
  C       1.138611      3.248092      2.139856
  H       1.016661      4.201137      1.630087
  H       2.097422      3.281722      2.660093
  H       0.353831      3.115450      2.878923
  H       3.187524     -1.857977      1.308048
  H       1.978740     -2.939524     -0.872666
39
Coordinates from ORCA-job reaction4-IEIP_ts_guess_scan_12-11_orca E -1288.403932603002
  Ir      0.610179     -0.742521      0.413815
  C       0.130219     -2.853085      0.358329
  C      -0.099671     -2.401987      1.706627
  C       2.135418     -2.076238      1.201661
  C       1.501957     -2.674908      0.061706
  C       1.136409     -1.940727      2.208690
  N      -1.075225      0.106525     -0.511955
  C      -2.349106      0.288664      0.199881
  C      -3.147422      1.497221     -0.268107
  H      -3.980095      1.654454      0.415577
  H      -3.580200      1.362283     -1.260295
  H      -2.547161      2.407395     -0.267631
  C      -3.169990     -0.992381      0.102306
  H      -2.071236      0.450584      1.242615
  H      -4.078171     -0.898474      0.696393
  H      -3.464557     -1.191848     -0.928785
  H      -2.623653     -1.858235      0.472579
  C      -0.922155      0.486466     -1.727780
  C       0.394368      0.320157     -2.259901
  H      -1.730193      0.931613     -2.299025
  C       1.412881      0.013826     -1.356443
  C       2.635690     -0.193613     -2.066938
  S       0.910558      0.381944     -3.875960
  C       2.507464     -0.021257     -3.412879
  H       1.645744      1.168117     -0.655396
  H       3.583221     -0.406625     -1.593367
  H       3.280443     -0.092879     -4.162989
  H      -0.603069     -3.292567     -0.302022
  H      -1.029291     -2.447250      2.252758
  H       1.288117     -1.490300      3.179467
  O       1.761401      2.296141      0.063945
  O       0.590578      1.040988      1.480122
  C       1.161978      2.119487      1.150191
  C       1.140497      3.248056      2.136842
  H       1.016621      4.201177      1.627664
  H       2.100376      3.282253      2.655066
  H       0.357385      3.114478      2.877493
  H       3.185792     -1.857029      1.314678
  H       1.983269     -2.940715     -0.868190
39
Coordinates from ORCA-job reaction4-IEIP_ts_guess_scan_12-11_orca E -1288.403940557020
  Ir      0.610438     -0.743889      0.413603
  C       0.132649     -2.854691      0.357111
  C      -0.102209     -2.403153      1.704639
  C       2.134135     -2.075240      1.207183
  C       1.505414     -2.675545      0.065616
  C       1.131291     -1.940464      2.210892
  N      -1.075636      0.105917     -0.511142
  C      -2.349289      0.287336      0.201160
  C      -3.146610      1.497619     -0.264053
  H      -3.979282      1.653825      0.419884
  H      -3.579241      1.365547     -1.256681
  H      -2.545640      2.407316     -0.261155
  C      -3.170891     -0.992975      0.100252
  H      -2.071183      0.446668      1.244217
  H      -4.079076     -0.900134      0.694520
  H      -3.465523     -1.189566     -0.931367
  H      -2.625077     -1.860184      0.468125
  C      -0.922853      0.486914     -1.726886
  C       0.393946      0.320554     -2.259376
  H      -1.730595      0.932958     -2.297808
  C       1.412816      0.013593     -1.356316
  C       2.635206     -0.193497     -2.067978
  S       0.909229      0.383592     -3.875550
  C       2.506454     -0.019739     -3.413661
  H       1.645496      1.170366     -0.660657
  H       3.583010     -0.406895     -1.595097
  H       3.279123     -0.090556     -4.164161
  H      -0.597642     -3.296018     -0.305305
  H      -1.033686     -2.449157      2.247548
  H       1.279047     -1.489654      3.182092
  O       1.759821      2.298436      0.058824
  O       0.593320      1.041104      1.477489
  C       1.163126      2.120346      1.146453
  C       1.142785      3.247922      2.134170
  H       1.016672      4.201384      1.626148
  H       2.103902      3.282597      2.650069
  H       0.361588      3.112825      2.876540
  H       3.183891     -1.854918      1.323755
  H       1.990443     -2.941354     -0.862354
39
Coordinates from ORCA-job reaction4-IEIP_ts_guess_scan_12-11_orca E -1288.403945118316
  Ir      0.610870     -0.744190      0.413315
  C       0.135711     -2.855665      0.355257
  C      -0.104120     -2.404469      1.702182
  C       2.133263     -2.073509      1.212205
  C       1.509353     -2.675115      0.068876
  C       1.126619     -1.940259      2.212659
  N      -1.075929      0.105832     -0.510350
  C      -2.349473      0.286549      0.202138
  C      -3.146001      1.498268     -0.260670
  H      -3.978884      1.653500      0.423230
  H      -3.578216      1.368669     -1.253800
  H      -2.544450      2.407568     -0.255506
  C      -3.171592     -0.993213      0.098417
  H      -2.071262      0.443555      1.245520
  H      -4.079557     -0.901604      0.693215
  H      -3.466627     -1.187153     -0.933590
  H      -2.625856     -1.861538      0.463811
  C      -0.923580      0.487066     -1.726214
  C       0.393252      0.320850     -2.259495
  H      -1.731421      0.933300     -2.296843
  C       1.412469      0.013999     -1.356655
  C       2.634303     -0.194064     -2.069379
  S       0.907177      0.382736     -3.875966
  C       2.504823     -0.020701     -3.414950
  H       1.645126      1.173066     -0.664565
  H       3.582434     -0.407191     -1.596999
  H       3.277023     -0.091996     -4.165881
  H      -0.591528     -3.298765     -0.309307
  H      -1.037371     -2.451711      2.241939
  H       1.270305     -1.489419      3.184452
  O       1.758715      2.300820      0.055527
  O       0.595405      1.041521      1.475850
  C       1.164056      2.121258      1.144210
  C       1.144812      3.247835      2.133009
  H       1.017357      4.201778      1.626201
  H       2.106811      3.282493      2.647278
  H       0.364935      3.111526      2.876528
  H       3.182357     -1.851995      1.332400
  H       1.998058     -2.940441     -0.857310
39
Coordinates from ORCA-job reaction4-IEIP_ts_guess_scan_12-11_orca E -1288.403947986706
  Ir      0.611454     -0.743783      0.413068
  C       0.139798     -2.856161      0.352584
  C      -0.105678     -2.406158      1.699016
  C       2.132720     -2.070901      1.217484
  C       1.514313     -2.673549      0.071947
  C       1.121858     -1.940153      2.214382
  N      -1.076183      0.105964     -0.509620
  C      -2.349693      0.285987      0.202976
  C      -3.145338      1.499214     -0.257330
  H      -3.978495      1.653462      0.426446
  H      -3.577070      1.372185     -1.251000
  H      -2.543115      2.408049     -0.249809
  C      -3.172436     -0.993170      0.096420
  H      -2.071487      0.440513      1.246733
  H      -4.079905     -0.902966      0.692181
  H      -3.468319     -1.184161     -0.935900
  H      -2.626575     -1.862678      0.458835
  C      -0.924515      0.486838     -1.725681
  C       0.392081      0.320815     -2.260027
  H      -1.732799      0.932716     -2.295996
  C       1.411750      0.014638     -1.357392
  C       2.632916     -0.195196     -2.071089
  S       0.904361      0.380064     -3.876929
  C       2.502484     -0.023531     -3.416662
  H       1.644395      1.175692     -0.667522
  H       3.581410     -0.407685     -1.599126
  H       3.274049     -0.096159     -4.168114
  H      -0.583959     -3.301045     -0.314565
  H      -1.040910     -2.455135      2.235181
  H       1.260856     -1.489575      3.186977
  O       1.757864      2.302888      0.053464
  O       0.597088      1.042155      1.475001
  C       1.164903      2.122123      1.143020
  C       1.146948      3.247960      2.132675
  H       1.018965      4.202389      1.626913
  H       2.109577      3.282161      2.645807
  H       0.367952      3.110992      2.876995
  H       3.181017     -1.847926      1.341823
  H       2.007091     -2.937686     -0.852427
39
Coordinates from ORCA-job reaction4-IEIP_ts_guess_scan_12-11_orca E -1288.403949476253
  Ir      0.611981     -0.743007      0.412950
  C       0.144379     -2.856181      0.349294
  C      -0.107019     -2.408076      1.695372
  C       2.132358     -2.067767      1.222721
  C       1.519755     -2.671065      0.074648
  C       1.117171     -1.940212      2.216021
  N      -1.076382      0.106036     -0.509052
  C      -2.349843      0.285501      0.203760
  C      -3.144504      1.500311     -0.253995
  H      -3.977784      1.653705      0.429811
  H      -3.576003      1.375858     -1.248092
  H      -2.541481      2.408590     -0.244312
  C      -3.173366     -0.992958      0.094512
  H      -2.071647      0.437540      1.247884
  H      -4.080072     -0.904147      0.691630
  H      -3.470544     -1.180854     -0.938013
  H      -2.627288     -1.863724      0.453619
  C      -0.925611      0.486121     -1.725357
  C       0.390558      0.320221     -2.260755
  H      -1.734551      0.931275     -2.295355
  C       1.410742      0.015017     -1.358373
  C       2.631305     -0.196563     -2.072752
  S       0.901385      0.376601     -3.878099
  C       2.499918     -0.027063     -3.418412
  H       1.643252      1.177301     -0.669346
  H       3.580116     -0.408355     -1.601098
  H       3.270834     -0.101202     -4.170381
  H      -0.575731     -3.302592     -0.320757
  H      -1.044365     -2.458956      2.227661
  H       1.251232     -1.490129      3.189536
  O       1.757310      2.303963      0.052380
  O       0.598194      1.042851      1.474860
  C       1.165594      2.122744      1.142592
  C       1.149068      3.248392      2.132539
  H       1.021466      4.203120      1.627269
  H       2.112022      3.281769      2.645126
  H       0.370438      3.111654      2.877297
  H       3.179782     -1.843189      1.351437
  H       2.016699     -2.933339     -0.848030
39
Coordinates from ORCA-job reaction4-IEIP_ts_guess_scan_12-11_orca E -1288.403950679487
  Ir      0.612414     -0.742176      0.413037
  C       0.149631     -2.855963      0.345353
  C      -0.108400     -2.410399      1.691145
  C       2.132031     -2.064147      1.228512
  C       1.525965     -2.667833      0.077431
  C       1.112075     -1.940503      2.217863
  N      -1.076633      0.105777     -0.508521
  C      -2.349965      0.284839      0.204723
  C      -3.143264      1.501621     -0.250087
  H      -3.976449      1.654279      0.433996
  H      -3.574846      1.380164     -1.244521
  H      -2.539118      2.409116     -0.238176
  C      -3.174669     -0.992628      0.092466
  H      -2.071737      0.434058      1.249232
  H      -4.080356     -0.905205      0.691323
  H      -3.473591     -1.176883     -0.940216
  H      -2.628506     -1.864972      0.447653
  C      -0.926998      0.484777     -1.725152
  C       0.388631      0.318872     -2.261541
  H      -1.736741      0.928961     -2.294811
  C       1.409428      0.014735     -1.359548
  C       2.629518     -0.197977     -2.074365
  S       0.898329      0.373013     -3.879304
  C       2.497208     -0.030452     -3.420139
  H       1.641620      1.177568     -0.670462
  H       3.578615     -0.409118     -1.602987
  H       3.267518     -0.105737     -4.172616
  H      -0.566395     -3.303761     -0.328129
  H      -1.048176     -2.463319      2.218940
  H       1.240617     -1.491136      3.192446
  O       1.756999      2.303938      0.051510
  O       0.598975      1.043579      1.475136
  C       1.166295      2.123130      1.142318
  C       1.151376      3.249198      2.131887
  H       1.024934      4.203961      1.626432
  H       2.114406      3.281457      2.644410
  H       0.372692      3.113631      2.876828
  H       3.178442     -1.837742      1.362172
  H       2.027497     -2.927537     -0.843497
39
Coordinates from ORCA-job reaction4-IEIP_ts_guess_scan_12-11_orca E -1288.403951917632
  Ir      0.612638     -0.741672      0.413315
  C       0.154403     -2.855758      0.341656
  C      -0.109722     -2.412652      1.687217
  C       2.131668     -2.060955      1.233909
  C       1.531643     -2.664810      0.079976
  C       1.107366     -1.940972      2.219628
  N      -1.076926      0.105084     -0.508001
  C      -2.350025      0.284017      0.205840
  C      -3.141729      1.502914     -0.246065
  H      -3.974591      1.655122      0.438523
  H      -3.573700      1.384468     -1.240695
  H      -2.536263      2.409490     -0.232179
  C      -3.176176     -0.992264      0.090676
  H      -2.071673      0.430524      1.250675
  H      -4.080856     -0.905928      0.691213
  H      -3.476861     -1.172937     -0.942130
  H      -2.630216     -1.866293      0.442081
  C      -0.928405      0.482974     -1.725040
  C       0.386767      0.316937     -2.262133
  H      -1.738866      0.926219     -2.294430
  C       1.408165      0.013617     -1.360630
  C       2.628059     -0.198936     -2.075606
  S       0.895952      0.370521     -3.880187
  C       2.495064     -0.032297     -3.421454
  H       1.639904      1.176268     -0.670900
  H       3.577381     -0.409608     -1.604478
  H       3.264991     -0.107742     -4.174311
  H      -0.557855     -3.304601     -0.335107
  H      -1.051801     -2.467252      2.210735
  H       1.230871     -1.492382      3.195210
  O       1.757029      2.302843      0.050470
  O       0.599418      1.044164      1.475468
  C       1.166950      2.123240      1.141753
  C       1.153357      3.250191      2.130375
  H       1.028527      4.204702      1.624086
  H       2.116187      3.281333      2.643342
  H       0.374211      3.116411      2.875178
  H       3.177126     -1.832897      1.372163
  H       2.037360     -2.921894     -0.839402
39
Coordinates from ORCA-job reaction4-IEIP_ts_guess_scan_12-11_orca E -1288.403953251242
  Ir      0.612673     -0.741707      0.413636
  C       0.157216     -2.855838      0.339491
  C      -0.110678     -2.414095      1.684870
  C       2.131334     -2.059285      1.237447
  C       1.535058     -2.663238      0.081753
  C       1.104337     -1.941390      2.220847
  N      -1.077180      0.104233     -0.507521
  C      -2.350039      0.283264      0.206819
  C      -3.140383      1.503817     -0.243033
  H      -3.972895      1.655915      0.442022
  H      -3.572756      1.387598     -1.237751
  H      -2.533808      2.409623     -0.227813
  C      -3.177439     -0.992001      0.089558
  H      -2.071525      0.427886      1.251847
  H      -4.081536     -0.906176      0.691057
  H      -3.479187     -1.170188     -0.943367
  H      -2.631944     -1.867325      0.438508
  C      -0.929361      0.481378     -1.724935
  C       0.385607      0.315180     -2.262324
  H      -1.740203      0.924043     -2.294222
  C       1.407431      0.012126     -1.361273
  C       2.627402     -0.199090     -2.076261
  S       0.894839      0.369997     -3.880484
  C       2.494077     -0.031918     -3.422086
  H       1.638840      1.174241     -0.670909
  H       3.576879     -0.409549     -1.605361
  H       3.263933     -0.106501     -4.175106
  H      -0.552691     -3.305251     -0.339350
  H      -1.054231     -2.469511      2.205653
  H       1.224782     -1.493359      3.197060
  O       1.757393      2.301443      0.049247
  O       0.599636      1.044463      1.475460
  C       1.167464      2.123172      1.140785
  C       1.154386      3.250969      2.128424
  H       1.030937      4.205130      1.621159
  H       2.116842      3.281398      2.642136
  H       0.374582      3.118714      2.872816
  H       3.176202     -1.830276      1.378583
  H       2.043377     -2.918704     -0.836641
39
Coordinates from ORCA-job reaction4-IEIP_ts_guess_scan_12-11_orca E -1288.403954173104
  Ir      0.612676     -0.742003      0.413810
  C       0.157987     -2.856142      0.338988
  C      -0.111176     -2.414521      1.684211
  C       2.131109     -2.059062      1.238851
  C       1.536069     -2.663166      0.082640
  C       1.103171     -1.941540      2.221371
  N      -1.077294      0.103693     -0.507160
  C      -2.350016      0.282826      0.207389
  C      -3.139637      1.504206     -0.241530
  H      -3.971986      1.656331      0.443728
  H      -3.572155      1.389074     -1.236308
  H      -2.532487      2.409613     -0.225645
  C      -3.178055     -0.991907      0.089110
  H      -2.071392      0.426597      1.252495
  H      -4.082070     -0.906179      0.690757
  H      -3.480003     -1.169059     -0.943933
  H      -2.632977     -1.867843      0.437208
  C      -0.929692      0.480565     -1.724790
  C       0.385266      0.314301     -2.262237
  H      -1.740602      0.923042     -2.294112
  C       1.407291      0.011104     -1.361471
  C       2.627384     -0.198771     -2.076527
  S       0.894631      0.370696     -3.880399
  C       2.493946     -0.030556     -3.422266
  H       1.638695      1.172863     -0.670867
  H       3.576965     -0.409194     -1.605826
  H       3.263881     -0.104152     -4.175304
  H      -0.551113     -3.305795     -0.340530
  H      -1.055248     -2.470032      2.204053
  H       1.222650     -1.493732      3.197802
  O       1.757867      2.300658      0.048260
  O       0.599785      1.044540      1.475087
  C       1.167781      2.123120      1.139827
  C       1.154497      3.251295      2.126981
  H       1.031815      4.205275      1.619185
  H       2.116591      3.281455      2.641388
  H       0.374119      3.119703      2.870880
  H       3.175794     -1.829825      1.380967
  H       2.045303     -2.918287     -0.835344
