! Opt PBEh-3c
%geom Constraints
{ B 0 20 2.342857142857143 C }
{ B 24 30 1.4142857142857144 C }
    end
end
%output 
xyzfile=True 
end 
%scf 
maxiter 250 
end
%output
Print[P_Hirshfeld] = 1
end
% maxcore
4000
*xyz 1 1
Ir   0.60042306  -0.71733752   0.45314156 
C    0.05038522  -2.80548467   0.36003888 
C    0.09282397  -2.34812183   1.72528167 
C    2.20381661  -2.12437473   0.82521352 
C    1.33113014  -2.64711720  -0.20146387 
C    1.44798995  -1.97462461   2.00342207 
N   -1.04543047   0.15541364  -0.52182000 
C   -2.31707640   0.45886006   0.15363595 
C   -3.11693588   1.56125066  -0.52242554 
H   -3.94460975   1.84441096   0.12646140 
H   -3.55922956   1.24718813  -1.46912832 
H   -2.51726155   2.45582564  -0.69266224 
C   -3.13385462  -0.81935093   0.30182731 
H   -2.02736157   0.80364774   1.14746970 
H   -4.04743983  -0.60735409   0.85528739 
H   -3.41931827  -1.22218251  -0.67081054 
H   -2.59338162  -1.58878077   0.85111954 
C   -0.86091427   0.37923194  -1.76666342 
C    0.48274809   0.17512002  -2.25149619 
H   -1.65334457   0.74007796  -2.41577559 
C    1.57381601   0.39912218  -1.41706071 
C    2.78252633   0.02273241  -2.07147201 
S    0.92319113  -0.44446733  -3.77444945 
C    2.58256380  -0.44226700  -3.33380370 
H    1.52966850   1.31615987  -0.63968696 
H    3.76439571   0.14606827  -1.63810303 
H    3.32480271  -0.76351344  -4.04885058 
H   -0.82318223  -3.17611412  -0.15681223 
H   -0.71601635  -2.37751972   2.44016135 
H    1.80753406  -1.56931488   2.93839779 
O    1.37252640   2.43894152   0.22949890 
O    0.53368496   0.93618609   1.64615857 
C    0.93895208   2.11858563   1.33729830 
C    0.88466107   3.11883634   2.45706795 
H    0.85774438   4.13285681   2.06767098 
H    1.78545800   3.01878949   3.06579778 
H    0.03215414   2.94605839   3.11040197 
H    3.25450576  -1.90257253   0.71318993 
H    1.61722495  -2.88567590  -1.21531809 
*
