39
Generated by autodE on: 2023-08-15. E = -1288.401032 Ha
Ir    0.61775  -0.73984   0.39796
C     0.17331  -2.85883   0.32344
C    -0.10349  -2.42731   1.67085
C     2.13641  -2.05111   1.23442
C     1.55215  -2.65866   0.07552
C     1.10230  -1.94708   2.21447
N    -1.07991   0.10677  -0.50743
C    -2.34759   0.28705   0.21467
C    -3.13617   1.51198  -0.22588
H    -3.96573   1.66287   0.46301
H    -3.57246   1.40214  -1.21962
H    -2.52690   2.41593  -0.20813
C    -3.17875  -0.98580   0.09620
H    -2.06217   0.42586   1.25861
H    -4.07770  -0.90159   0.70557
H    -3.48931  -1.15689  -0.93530
H    -2.63202  -1.86430   0.43512
C    -0.93595   0.48647  -1.72465
C     0.37895   0.31174  -2.25894
H    -1.74493   0.93520  -2.29151
C     1.38981  -0.00558  -1.34504
C     2.61640  -0.21843  -2.05483
S     0.90320   0.37506  -3.86955
C     2.49662  -0.04075  -3.39946
H     1.62320   1.16245  -0.70624
H     3.56076  -0.43559  -1.57660
H     3.27289  -0.11335  -4.14603
H    -0.52900  -3.31404  -0.35938
H    -1.05033  -2.48905   2.18490
H     1.21410  -1.50177   3.19290
O     1.73624   2.31810   0.02350
O     0.61076   1.04375   1.46121
C     1.16229   2.13078   1.11977
C     1.14526   3.25395   2.11373
H     1.03070   4.21150   1.61109
H     2.10280   3.27605   2.63702
H     0.35856   3.12090   2.85084
H     3.17926  -1.81828   1.38403
H     2.06807  -2.91111  -0.83952
