39
Generated by autodE on: 2023-08-14. E = -1288.401082 Ha
Ir    0.61735  -0.72238   0.43116
C     0.13044  -2.83562   0.33807
C    -0.04500  -2.37478   1.69072
C     2.17317  -2.07710   1.10728
C     1.48369  -2.65564  -0.01653
C     1.22474  -1.93547   2.15147
N    -1.06009   0.12851  -0.51050
C    -2.33228   0.34669   0.19503
C    -3.12684   1.53549  -0.32656
H    -3.95630   1.72896   0.35190
H    -3.56484   1.35458  -1.30911
H    -2.52315   2.44216  -0.37179
C    -3.15736  -0.93502   0.15517
H    -2.05033   0.55232   1.22864
H    -4.06420  -0.81048   0.74554
H    -3.45492  -1.17928  -0.86542
H    -2.61429  -1.78523   0.56459
C    -0.90600   0.45270  -1.74071
C     0.41450   0.27356  -2.26924
H    -1.71463   0.86702  -2.33460
C     1.47337   0.13135  -1.37258
C     2.67850  -0.14637  -2.08770
S     0.87344   0.09342  -3.89222
C     2.50119  -0.18998  -3.43658
H     1.61680   1.13764  -0.61632
H     3.64735  -0.24772  -1.62055
H     3.24901  -0.35203  -4.19792
H    -0.63611  -3.25644  -0.29623
H    -0.95042  -2.41983   2.27666
H     1.42086  -1.49585   3.11929
O     1.70027   2.31691   0.15993
O     0.55156   1.00935   1.54676
C     1.10359   2.11579   1.22949
C     1.03190   3.21515   2.24929
H     0.91315   4.18008   1.76179
H     1.97302   3.24672   2.80093
H     0.22708   3.05383   2.96113
H     3.22715  -1.85473   1.17027
H     1.92402  -2.90907  -0.96982
