! Opt PBEh-3c
%geom Constraints
{ B 0 20 2.342857142857143 C }
{ B 24 30 1.3857142857142857 C }
    end
end
%output 
xyzfile=True 
end 
%scf 
maxiter 250 
end
%output
Print[P_Hirshfeld] = 1
end
% maxcore
4000
*xyz 1 1
Ir   0.60158650  -0.72270382   0.46660742 
C    0.06590313  -2.81456738   0.35972127 
C    0.05560585  -2.35471917   1.72480295 
C    2.19841859  -2.11962071   0.90301654 
C    1.36639244  -2.65009539  -0.15264285 
C    1.39618363  -1.97238875   2.05155315 
N   -1.04298220   0.14356730  -0.51345606 
C   -2.31704142   0.43055183   0.16585122 
C   -3.10255126   1.56712458  -0.47015257 
H   -3.93067809   1.83374055   0.18511846 
H   -3.54276373   1.29384747  -1.43018365 
H   -2.49201784   2.46046252  -0.60356046 
C   -3.14540091  -0.84592399   0.25462804 
H   -2.03286880   0.73192205   1.17514131 
H   -4.05796137  -0.65329678   0.81689147 
H   -3.43288255  -1.20077409  -0.73595125 
H   -2.61073668  -1.64504221   0.76592619 
C   -0.86732898   0.37621452  -1.75888354 
C    0.47066496   0.18569685  -2.25997776 
H   -1.66884247   0.73569598  -2.39765318 
C    1.56632463   0.36845336  -1.42291341 
C    2.76921541   0.01330012  -2.09806889 
S    0.90015787  -0.36630942  -3.81235534 
C    2.56029621  -0.39302975  -3.37992450 
H    1.53923335   1.29584307  -0.62770978 
H    3.75430101   0.11031300  -1.66536939 
H    3.29805453  -0.68622213  -4.11146384 
H   -0.78467524  -3.19400424  -0.18807091 
H   -0.77862962  -2.38832987   2.40967686 
H    1.71738373  -1.56193964   2.99829421 
O    1.41983554   2.41281036   0.20783091 
O    0.53973214   0.94866004   1.63885657 
C    0.96584413   2.11736657   1.31715390 
C    0.91351419   3.14133145   2.41446810 
H    0.87647344   4.14661640   2.00362202 
H    1.82127713   3.06135268   3.01576737 
H    0.06800046   2.97622175   3.07842602 
H    3.25220920  -1.89639613   0.83140502 
H    1.69012302  -2.88653895  -1.15568158 
*
