39
Generated by autodE on: 2023-08-16. E = -1288.406994 Ha
Ir    0.60599  -0.75253   0.39783
C     0.18512  -2.86683   0.33923
C    -0.15530  -2.43827   1.67457
C     2.09458  -2.03143   1.33385
C     1.57647  -2.65834   0.15877
C     1.01177  -1.93713   2.26832
N    -1.09416   0.08883  -0.50412
C    -2.36917   0.23427   0.21356
C    -3.15601   1.47662  -0.17852
H    -3.99199   1.59566   0.50889
H    -3.58324   1.41172  -1.18013
H    -2.54767   2.37906  -0.11496
C    -3.19748  -1.03281   0.03265
H    -2.09469   0.32857   1.26548
H    -4.09786  -0.98107   0.64364
H    -3.50572  -1.15391  -1.00660
H    -2.64886  -1.92617   0.32722
C    -0.94851   0.50338  -1.71032
C     0.36365   0.34571  -2.25293
H    -1.76012   0.96386  -2.26404
C     1.36359  -0.05593  -1.36684
C     2.58988  -0.23139  -2.08013
S     0.89949   0.52663  -3.85648
C     2.47961   0.05380  -3.41051
H     1.68881   1.22602  -0.72806
H     3.52710  -0.50912  -1.61952
H     3.26011   0.02318  -4.15563
H    -0.47661  -3.34367  -0.36878
H    -1.12620  -2.50341   2.14114
H     1.07256  -1.48590   3.24836
O     1.82847   2.30493  -0.01641
O     0.63720   1.07492   1.41016
C     1.22740   2.13383   1.08040
C     1.24819   3.26957   2.05662
H     1.12955   4.22185   1.54449
H     2.21946   3.29034   2.55409
H     0.47846   3.15292   2.81374
H     3.12686  -1.78620   1.52991
H     2.13866  -2.91233  -0.72819
