! Opt PBEh-3c
%geom Constraints
{ B 0 20 2.428571428571429 C }
{ B 24 30 1.457142857142857 C }
    end
end
%output 
xyzfile=True 
end 
%scf 
maxiter 250 
end
%output
Print[P_Hirshfeld] = 1
end
% maxcore
4000
*xyz 1 1
Ir   0.59530013  -0.71719908   0.44765209 
C    0.04467138  -2.80201250   0.34001452 
C    0.12155666  -2.34895817   1.70755662 
C    2.20867714  -2.12640986   0.76037026 
C    1.31064689  -2.63976285  -0.24975448 
C    1.48683073  -1.98634043   1.95883533 
N   -1.04543410   0.17177164  -0.52142926 
C   -2.31404985   0.49937881   0.14740876 
C   -3.12306028   1.56530604  -0.57365612 
H   -3.95067375   1.87082789   0.06504101 
H   -3.56580454   1.20727792  -1.50457122 
H   -2.53063796   2.45625901  -0.78414000 
C   -3.12205205  -0.77511077   0.35923600 
H   -2.01889012   0.89031775   1.12246969 
H   -4.03326464  -0.54235934   0.90812567 
H   -3.41164734  -1.22382309  -0.59187885 
H   -2.57468369  -1.51537651   0.94111285 
C   -0.84672354   0.37843240  -1.76504090 
C    0.50409366   0.14973907  -2.23201034 
H   -1.62639753   0.74035633  -2.42911348 
C    1.60668996   0.49143946  -1.45609230 
C    2.81102807   0.07010809  -2.09139095 
S    0.93048764  -0.62798051  -3.68903964 
C    2.59840305  -0.53961223  -3.28719294 
H    1.53671284   1.37243050  -0.68653484 
H    3.79720066   0.26348829  -1.69499341 
H    3.33446089  -0.92465378  -3.97664376 
H   -0.84282433  -3.16697629  -0.15670176 
H   -0.66964895  -2.38151931   2.44212502 
H    1.87050735  -1.59024024   2.88808298 
O    1.29920245   2.47177821   0.26221459 
O    0.53562104   0.91088033   1.66136043 
C    0.90072420   2.11625315   1.36698391 
C    0.83567954   3.08158725   2.51789154 
H    0.78860279   4.10554084   2.15734792 
H    1.74097096   2.98055783   3.11970524 
H   -0.00988216   2.87678298   3.17129201 
H    3.25435703  -1.89691342   0.61914616 
H    1.57261979  -2.86607545  -1.27304833 
*
