39
Generated by autodE on: 2023-08-14. E = -1288.395752 Ha
Ir    0.62763  -0.72160   0.38870
C     0.16557  -2.84675   0.31331
C    -0.04627  -2.40430   1.66727
C     2.17618  -2.05474   1.13008
C     1.52789  -2.65218  -0.00433
C     1.19475  -1.93705   2.15447
N    -1.06995   0.12919  -0.51680
C    -2.33061   0.34068   0.20828
C    -3.12905   1.53864  -0.28509
H    -3.95168   1.72089   0.40457
H    -3.57636   1.37467  -1.26645
H    -2.52478   2.44541  -0.32050
C    -3.15778  -0.93976   0.15950
H    -2.03367   0.52920   1.24103
H    -4.05327  -0.82533   0.76890
H    -3.47413  -1.16458  -0.85984
H    -2.60727  -1.79754   0.54213
C    -0.92601   0.47735  -1.74256
C     0.39149   0.28120  -2.26725
H    -1.73054   0.91696  -2.32257
C     1.41338   0.04349  -1.33481
C     2.63714  -0.21710  -2.04064
S     0.89908   0.20533  -3.87768
C     2.50435  -0.15917  -3.39170
H     1.59737   1.11434  -0.69890
H     3.58815  -0.37590  -1.55281
H     3.27272  -0.28675  -4.13897
H    -0.57567  -3.28770  -0.33706
H    -0.96659  -2.46059   2.22810
H     1.35811  -1.49219   3.12591
O     1.68029   2.35454   0.08860
O     0.58153   1.02121   1.49385
C     1.11083   2.13656   1.16850
C     1.04581   3.22722   2.19990
H     0.97636   4.20209   1.72364
H     1.96763   3.21459   2.78406
H     0.21381   3.08419   2.88427
H     3.22637  -1.82692   1.22701
H     1.99653  -2.90840  -0.94338
