! Opt PBEh-3c
%geom Constraints
{ B 0 20 2.3857142857142857 C }
{ B 24 30 1.4142857142857144 C }
    end
end
%output 
xyzfile=True 
end 
%scf 
maxiter 250 
end
%output
Print[P_Hirshfeld] = 1
end
% maxcore
4000
*xyz 1 1
Ir   0.59504962  -0.71926728   0.45741928 
C    0.04375178  -2.80446167   0.35494725 
C    0.10171744  -2.35150090   1.72199108 
C    2.20251791  -2.12821046   0.80122443 
C    1.31810118  -2.64402852  -0.21926769 
C    1.46182616  -1.98400940   1.98872274 
N   -1.04546580   0.15972417  -0.52025035 
C   -2.31737117   0.47316211   0.15003663 
C   -3.12038914   1.55983325  -0.54707908 
H   -3.94890119   1.85273536   0.09639616 
H   -3.56175429   1.22675405  -1.48776171 
H   -2.52376930   2.45314863  -0.73412139 
C   -3.13079390  -0.80366724   0.32463841 
H   -2.02739852   0.83859159   1.13646399 
H   -4.04494017  -0.58217777   0.87338454 
H   -3.41529288  -1.22728466  -0.63942729 
H   -2.58910749  -1.56020271   0.89051677 
C   -0.85428544   0.37480662  -1.76502726 
C    0.49237893   0.16519698  -2.24355976 
H   -1.64270532   0.73255142  -2.42088171 
C    1.58799133   0.43992634  -1.43157413 
C    2.79536363   0.04994182  -2.07991254 
S    0.92796910  -0.51308024  -3.74480703 
C    2.59092997  -0.47158798  -3.31905622 
H    1.52911057   1.34299783  -0.64862601 
H    3.77904648   0.20325041  -1.66042486 
H    3.33127085  -0.81456779  -4.02594968 
H   -0.83638854  -3.17072475  -0.15381460 
H   -0.69934108  -2.38327929   2.44561928 
H    1.83251603  -1.58476606   2.92191989 
O    1.34819451   2.44535912   0.24181506 
O    0.53385590   0.92639605   1.65651443 
C    0.92744854   2.11507002   1.35037292 
C    0.87312257   3.10628202   2.47838471 
H    0.83854963   4.12292615   2.09648797 
H    1.77735876   3.00700853   3.08214299 
H    0.02493397   2.92431185   3.13492011 
H    3.25111713  -1.90299075   0.67636423 
H    1.59315229  -2.87497679  -1.23800150 
*
