39
Generated by autodE on: 2023-08-15. E = -1288.396822 Ha
Ir    0.59085  -0.74238   0.51135
C     0.08331  -2.83594   0.37731
C    -0.04485  -2.37065   1.73536
C     2.16027  -2.12006   1.09555
C     1.42322  -2.66378  -0.02012
C     1.25798  -1.97234   2.16926
N    -1.03971   0.11536  -0.49465
C    -2.32605   0.36185   0.18059
C    -3.09733   1.54412  -0.38863
H    -3.93378   1.77023   0.27122
H    -3.52419   1.33976  -1.37138
H    -2.48054   2.44067  -0.45343
C    -3.16299  -0.91196   0.16309
H    -2.06342   0.59514   1.21342
H    -4.08143  -0.76012   0.72858
H    -3.44062  -1.18656  -0.85545
H    -2.63811  -1.75350   0.61271
C    -0.87115   0.38345  -1.73611
C     0.45258   0.23087  -2.27391
H    -1.68860   0.74566  -2.35331
C     1.56707   0.30311  -1.45128
C     2.74762   0.01246  -2.18749
S     0.84101  -0.12784  -3.89701
C     2.50484  -0.22736  -3.50781
H     1.61375   1.25185  -0.57224
H     3.74368   0.03797  -1.77010
H     3.22408  -0.43815  -4.28477
H    -0.71242  -3.22983  -0.23820
H    -0.93179  -2.41021   2.35008
H     1.49349  -1.55198   3.13683
O     1.61405   2.31574   0.19944
O     0.54320   0.97971   1.62483
C     1.06074   2.09781   1.29077
C     1.00933   3.18709   2.32038
H     0.93636   4.16241   1.84572
H     1.93776   3.17269   2.89445
H     0.18572   3.04453   3.01507
H     3.21560  -1.89471   1.11427
H     1.82984  -2.89596  -0.99365
