! Opt PBEh-3c
%geom Constraints
{ B 0 20 2.1285714285714286 C }
{ B 24 30 1.3714285714285714 C }
    end
end
%output 
xyzfile=True 
end 
%scf 
maxiter 250 
end
%output
Print[P_Hirshfeld] = 1
end
% maxcore
4000
*xyz 1 1
Ir   0.61185742  -0.72764916   0.43569496 
C    0.12940580  -2.83985240   0.34751790 
C   -0.06593726  -2.37798363   1.69727389 
C    2.15985457  -2.07561241   1.14367699 
C    1.48849697  -2.65944542   0.01285564 
C    1.19467849  -1.93339610   2.17386365 
N   -1.06376216   0.12074432  -0.50979605 
C   -2.33877821   0.32786445   0.19440381 
C   -3.13286179   1.52296809  -0.31353870 
H   -3.96428858   1.70684891   0.36512897 
H   -3.56780234   1.35537036  -1.29978860 
H   -2.52928492   2.43030684  -0.34495672 
C   -3.16239663  -0.95391952   0.13491207 
H   -2.06140555   0.52063874   1.23176565 
H   -4.07114025  -0.83886702   0.72433130 
H   -3.45650712  -1.18477002  -0.88977478 
H   -2.61926118  -1.80905199   0.53386276 
C   -0.90952671   0.45771670  -1.73707841 
C    0.40962689   0.28743518  -2.26946072 
H   -1.72020885   0.87508475  -2.32594362 
C    1.46498388   0.11135057  -1.37630854 
C    2.67058077  -0.14731678  -2.09595686 
S    0.87380622   0.16691497  -3.89762996 
C    2.49742850  -0.14016307  -3.44689262 
H    1.63032395   1.13946008  -0.60945093 
H    3.63745616  -0.27245929  -1.63043511 
H    3.24761190  -0.27863433  -4.21057788 
H   -0.62625693  -3.26548532  -0.29652797 
H   -0.97956141  -2.42355402   2.27019388 
H    1.37526779  -1.48933997   3.14269781 
O    1.73252304   2.29634239   0.14644771 
O    0.55453592   1.01887824   1.53610659 
C    1.12517673   2.11148659   1.21679185 
C    1.07001210   3.22289861   2.22330310 
H    0.95760401   4.18326722   1.72531010 
H    2.01451585   3.25188686   2.76924451 
H    0.26718437   3.07678824   2.94045279 
H    3.21258908  -1.85241806   1.22225374 
H    1.94282950  -2.91514361  -0.93323224 
*
