39
Generated by autodE on: 2023-08-14. E = -1288.401372 Ha
Ir    0.60950  -0.72045   0.44171
C     0.11225  -2.82962   0.35551
C    -0.03091  -2.36138   1.70915
C     2.17568  -2.08119   1.07653
C     1.45638  -2.65476  -0.03287
C     1.25526  -1.93093   2.14118
N    -1.06050   0.12741  -0.51468
C    -2.33534   0.35395   0.18441
C    -3.13295   1.52972  -0.36129
H    -3.96308   1.73482   0.31302
H    -3.57064   1.32755  -1.33983
H    -2.53192   2.43704  -0.42492
C    -3.15631  -0.93080   0.16894
H    -2.05568   0.58018   1.21433
H    -4.06597  -0.79562   0.75258
H    -3.44901  -1.19846  -0.84716
H    -2.61279  -1.76979   0.60021
C    -0.90203   0.43729  -1.74772
C     0.42181   0.26333  -2.27272
H    -1.71127   0.83858  -2.34990
C     1.49032   0.17133  -1.38365
C     2.69409  -0.11073  -2.09616
S     0.87224   0.03466  -3.89362
C     2.50774  -0.20455  -3.44165
H     1.61107   1.16031  -0.60292
H     3.66750  -0.18072  -1.63288
H     3.25245  -0.38027  -4.20301
H    -0.67242  -3.24344  -0.26111
H    -0.92275  -2.40138   2.31600
H     1.47695  -1.49112   3.10337
O     1.68730   2.31882   0.17940
O     0.53741   1.00642   1.56070
C     1.09361   2.11341   1.24938
C     1.03141   3.20116   2.28172
H     1.00952   4.17959   1.80841
H     1.93235   3.15486   2.89614
H     0.17376   3.08267   2.93877
H     3.23106  -1.85890   1.11149
H     1.87327  -2.90981  -0.99616
