! Opt PBEh-3c
%geom Constraints
{ B 0 20 2.4714285714285715 C }
{ B 24 30 1.4714285714285715 C }
    end
end
%output 
xyzfile=True 
end 
%scf 
maxiter 250 
end
%output
Print[P_Hirshfeld] = 1
end
% maxcore
4000
*xyz 1 1
Ir   0.59048452  -0.72137999   0.44510878 
C    0.03440189  -2.80295871   0.33103679 
C    0.12728404  -2.35359358   1.69959498 
C    2.20417381  -2.13505165   0.73196369 
C    1.29447711  -2.64192179  -0.27097322 
C    1.49708946  -1.99804688   1.93887342 
N   -1.04331029   0.18233216  -0.52225531 
C   -2.31017331   0.52346189   0.14253519 
C   -3.13456896   1.55380870  -0.61144923 
H   -3.96532640   1.86828985   0.01866977 
H   -3.57324051   1.15814441  -1.52902525 
H   -2.55639615   2.44651416  -0.85229142 
C   -3.10627579  -0.74838436   0.40756814 
H   -2.01126325   0.95276057   1.10032644 
H   -4.01613408  -0.50145922   0.95243993 
H   -3.39832568  -1.23498202  -0.52402105 
H   -2.55090823  -1.46172366   1.01484439 
C   -0.83348036   0.38901093  -1.76319279 
C    0.52018216   0.14750129  -2.22165260 
H   -1.60378782   0.75909721  -2.43365263 
C    1.62787173   0.52946962  -1.47344163 
C    2.82919570   0.09148671  -2.10340324 
S    0.93865983  -0.68166174  -3.65453962 
C    2.61001885  -0.56517347  -3.27249765 
H    1.54883558   1.39609914  -0.70302320 
H    3.81728111   0.30619931  -1.72312573 
H    3.34279781  -0.97221904  -3.95273177 
H   -0.85983318  -3.16333589  -0.15685071 
H   -0.65589518  -2.38669017   2.44280668 
H    1.89178615  -1.60661299   2.86547341 
O    1.27092598   2.47693203   0.27774866 
O    0.53842477   0.89417274   1.66984227 
C    0.88575684   2.10812509   1.38123487 
C    0.81235747   3.06180078   2.54180971 
H    0.75594822   4.08848211   2.19043625 
H    1.71830212   2.96350813   3.14302647 
H   -0.03133592   2.84403103   3.19355258 
H    3.24781236  -1.90393551   0.57819814 
H    1.54555760  -2.86290721  -1.29822346 
*
