39
Coordinates from ORCA-job reaction4-IEIP_ts_guess_scan_11-13_orca E -1288.405512609693
  Ir      0.609835     -0.734143      0.430912
  C       0.136356     -2.842653      0.344680
  C      -0.097791     -2.385511      1.690603
  C       2.142401     -2.068814      1.194851
  C       1.507061     -2.659522      0.049970
  C       1.144182     -1.931118      2.199978
  N      -1.069814      0.110779     -0.510344
  C      -2.347499      0.295991      0.195573
  C      -3.141543      1.505034     -0.278828
  H      -3.975183      1.667621      0.402497
  H      -3.572807      1.367735     -1.271315
  H      -2.538412      2.413245     -0.280821
  C      -3.169990     -0.983862      0.096911
  H      -2.074725      0.460349      1.239136
  H      -4.080338     -0.887992      0.687395
  H      -3.461162     -1.184656     -0.934923
  H      -2.626570     -1.850288      0.470417
  C      -0.919330      0.469248     -1.726583
  C       0.394970      0.304376     -2.254053
  H      -1.730081      0.896514     -2.308223
  C       1.436269      0.061987     -1.361851
  C       2.645409     -0.168285     -2.082378
  S       0.877720      0.283608     -3.883948
  C       2.488523     -0.072300     -3.433320
  H       1.643118      1.159274     -0.588356
  H       3.605267     -0.340734     -1.617328
  H       3.247277     -0.174546     -4.194371
  H      -0.596894     -3.276902     -0.319125
  H      -1.027633     -2.433176      2.236489
  H       1.294692     -1.484248      3.172647
  O       1.767839      2.267113      0.107692
  O       0.573248      1.036930      1.509592
  C       1.156630      2.109764      1.184903
  C       1.131693      3.242189      2.166504
  H       1.008204      4.192438      1.651660
  H       2.090621      3.280683      2.686121
  H       0.346911      3.112321      2.906023
  H       3.192059     -1.844460      1.304527
  H       1.988857     -2.914802     -0.882574
39
Coordinates from ORCA-job reaction4-IEIP_ts_guess_scan_11-13_orca E -1288.405758318879
  Ir      0.609425     -0.734463      0.428574
  C       0.135625     -2.845086      0.346351
  C      -0.096121     -2.389287      1.692984
  C       2.141926     -2.070618      1.193721
  C       1.505616     -2.662196      0.049911
  C       1.144933     -1.933562      2.199591
  N      -1.072962      0.109128     -0.508842
  C      -2.350125      0.295084      0.197992
  C      -3.142974      1.504873     -0.276456
  H      -3.976750      1.668019      0.404535
  H      -3.573878      1.368103     -1.269194
  H      -2.539126      2.412632     -0.278092
  C      -3.173892     -0.983914      0.099300
  H      -2.077093      0.459040      1.241573
  H      -4.084055     -0.887266      0.689926
  H      -3.465486     -1.184298     -0.932513
  H      -2.631273     -1.850901      0.472604
  C      -0.919454      0.468831     -1.730073
  C       0.398622      0.306418     -2.260040
  H      -1.729759      0.897137     -2.311538
  C       1.436446      0.058335     -1.365394
  C       2.647260     -0.172104     -2.083737
  S       0.886133      0.292942     -3.888701
  C       2.494518     -0.070716     -3.434824
  H       1.647864      1.167506     -0.591815
  H       3.605607     -0.347733     -1.616564
  H       3.255310     -0.172372     -4.193836
  H      -0.598334     -3.280201     -0.316129
  H      -1.024727     -2.438191      2.240739
  H       1.296505     -1.486941      3.172199
  O       1.771744      2.274753      0.105325
  O       0.572200      1.039322      1.509225
  C       1.157650      2.113308      1.184485
  C       1.130301      3.245245      2.166214
  H       1.006839      4.195655      1.651597
  H       2.088332      3.284267      2.687425
  H       0.344330      3.114217      2.904172
  H       3.191785     -1.846934      1.302840
  H       1.986407     -2.918843     -0.882792
39
Coordinates from ORCA-job reaction4-IEIP_ts_guess_scan_11-13_orca E -1288.405855525678
  Ir      0.608654     -0.734637      0.427874
  C       0.132051     -2.845984      0.352032
  C      -0.096999     -2.390933      1.699036
  C       2.139528     -2.072656      1.195858
  C       1.501796     -2.665036      0.053624
  C       1.143666     -1.934936      2.202510
  N      -1.073715      0.108153     -0.507538
  C      -2.350673      0.293473      0.198153
  C      -3.143309      1.502700     -0.277993
  H      -3.978625      1.665682      0.401189
  H      -3.571865      1.365276     -1.271649
  H      -2.539902      2.410735     -0.278791
  C      -3.173511     -0.986099      0.099632
  H      -2.078124      0.457905      1.241775
  H      -4.084094     -0.889845      0.689709
  H      -3.464299     -1.187211     -0.932234
  H      -2.630297     -1.852430      0.473754
  C      -0.919187      0.470247     -1.730311
  C       0.399441      0.309971     -2.264184
  H      -1.730361      0.899237     -2.309867
  C       1.434421      0.052000     -1.369382
  C       2.646538     -0.175107     -2.086765
  S       0.889043      0.304959     -3.892189
  C       2.497200     -0.059622     -3.437173
  H       1.652627      1.174111     -0.597506
  H       3.603712     -0.355402     -1.618904
  H       3.259994     -0.154561     -4.195028
  H      -0.603073     -3.281392     -0.308940
  H      -1.024646     -2.439386      2.248408
  H       1.296755     -1.487959      3.174721
  O       1.775707      2.279539      0.102657
  O       0.572630      1.040570      1.506843
  C       1.158977      2.114270      1.182578
  C       1.132370      3.245234      2.164609
  H       1.009621      4.196173      1.650779
  H       2.090282      3.283259      2.686176
  H       0.345987      3.113680      2.901946
  H       3.189792     -1.850690      1.304418
  H       1.981259     -2.924096     -0.879089
39
Coordinates from ORCA-job reaction4-IEIP_ts_guess_scan_11-13_orca E -1288.405912613588
  Ir      0.608088     -0.735609      0.427834
  C       0.128539     -2.846856      0.359262
  C      -0.098710     -2.392237      1.706425
  C       2.136987     -2.074726      1.200330
  C       1.498428     -2.668067      0.059449
  C       1.141594     -1.935975      2.207444
  N      -1.073756      0.106758     -0.507933
  C      -2.351386      0.290251      0.196479
  C      -3.145427      1.498891     -0.279004
  H      -3.981822      1.660021      0.399292
  H      -3.572565      1.361812     -1.273282
  H      -2.543282      2.407761     -0.278219
  C      -3.172854     -0.990167      0.097164
  H      -2.079608      0.454131      1.240442
  H      -4.083876     -0.895149      0.686781
  H      -3.462718     -1.191282     -0.934945
  H      -2.628727     -1.855833      0.471415
  C      -0.918460      0.473154     -1.729864
  C       0.399659      0.316206     -2.266747
  H      -1.730293      0.904474     -2.306569
  C       1.431915      0.044696     -1.373069
  C       2.645206     -0.177318     -2.090036
  S       0.893893      0.336084     -3.893115
  C       2.497765     -0.049553     -3.439644
  H       1.658020      1.180184     -0.604701
  H       3.600582     -0.367952     -1.622637
  H       3.261187     -0.141919     -4.197199
  H      -0.607416     -3.282571     -0.300580
  H      -1.025918     -2.439531      2.256595
  H       1.295793     -1.488165      3.179109
  O       1.779946      2.283065      0.099667
  O       0.574659      1.042572      1.503427
  C       1.161590      2.115006      1.180012
  C       1.136944      3.246061      2.161534
  H       1.015111      4.197243      1.647949
  H       2.095095      3.282992      2.682776
  H       0.350614      3.115061      2.899027
  H       3.187614     -1.854571      1.308880
  H       1.976960     -2.929754     -0.873006
39
Coordinates from ORCA-job reaction4-IEIP_ts_guess_scan_11-13_orca E -1288.405963655772
  Ir      0.607431     -0.739277      0.428791
  C       0.123411     -2.848956      0.368037
  C      -0.102809     -2.393522      1.714952
  C       2.133122     -2.079188      1.207301
  C       1.493982     -2.673551      0.067623
  C       1.137624     -1.937812      2.214445
  N      -1.072898      0.104891     -0.509018
  C      -2.351552      0.286466      0.194489
  C      -3.147063      1.495136     -0.278600
  H      -3.983800      1.653835      0.399780
  H      -3.573909      1.359557     -1.273198
  H      -2.545998      2.404743     -0.275807
  C      -3.172269     -0.994339      0.093332
  H      -2.080580      0.448851      1.238974
  H      -4.083756     -0.900520      0.682394
  H      -3.461134     -1.194529     -0.939247
  H      -2.627786     -1.859905      0.467124
  C      -0.917396      0.475725     -1.728816
  C       0.398822      0.319141     -2.267972
  H      -1.729831      0.909040     -2.303163
  C       1.428994      0.034012     -1.376168
  C       2.644063     -0.178337     -2.092872
  S       0.895348      0.354886     -3.893320
  C       2.500362     -0.026197     -3.440502
  H       1.661837      1.182549     -0.614493
  H       3.598167     -0.376722     -1.626213
  H       3.266253     -0.104377     -4.197204
  H      -0.613249     -3.284606     -0.291083
  H      -1.030241     -2.438020      2.264927
  H       1.292737     -1.488442      3.185249
  O       1.781887      2.283681      0.092927
  O       0.579216      1.043547      1.498852
  C       1.165128      2.114478      1.174713
  C       1.144126      3.247208      2.154555
  H       1.021532      4.197920      1.640335
  H       2.103720      3.284168      2.673146
  H       0.359756      3.117537      2.894428
  H       3.184195     -1.861423      1.316261
  H       1.971929     -2.938459     -0.864218
39
Coordinates from ORCA-job reaction4-IEIP_ts_guess_scan_11-13_orca E -1288.405989710767
  Ir      0.606774     -0.742236      0.429261
  C       0.121443     -2.850138      0.371014
  C      -0.106429     -2.393612      1.717377
  C       2.130564     -2.080721      1.212173
  C       1.492854     -2.675974      0.072283
  C       1.133657     -1.937839      2.218208
  N      -1.072101      0.103203     -0.509959
  C      -2.350847      0.283817      0.194126
  C      -3.146797      1.492862     -0.277059
  H      -3.982922      1.650399      0.402306
  H      -3.574572      1.358532     -1.271468
  H      -2.545951      2.402629     -0.273535
  C      -3.171411     -0.996956      0.091586
  H      -2.079849      0.445158      1.238778
  H      -4.083048     -0.903629      0.680454
  H      -3.459940     -1.196248     -0.941272
  H      -2.627049     -1.862868      0.464780
  C      -0.917095      0.477127     -1.727805
  C       0.398213      0.320693     -2.266729
  H      -1.729310      0.912890     -2.300780
  C       1.428110      0.029273     -1.376562
  C       2.643821     -0.177345     -2.093631
  S       0.896996      0.371513     -3.891056
  C       2.500738     -0.015951     -3.440399
  H       1.662600      1.181916     -0.620384
  H       3.597236     -0.381479     -1.628115
  H       3.266859     -0.089587     -4.197341
  H      -0.614471     -3.285980     -0.288828
  H      -1.034964     -2.436348      2.265618
  H       1.287816     -1.487200      3.188559
  O       1.781133      2.282661      0.087893
  O       0.581787      1.043310      1.495065
  C       1.166392      2.113866      1.170308
  C       1.147786      3.247593      2.149578
  H       1.024024      4.197958      1.635059
  H       2.108599      3.284783      2.665890
  H       0.365248      3.118638      2.891550
  H       3.181602     -1.863435      1.322459
  H       1.971874     -2.942084     -0.858662
39
Coordinates from ORCA-job reaction4-IEIP_ts_guess_scan_11-13_orca E -1288.406003581121
  Ir      0.606403     -0.745005      0.429585
  C       0.121256     -2.851707      0.371896
  C      -0.109274     -2.393878      1.717573
  C       2.128884     -2.081511      1.216442
  C       1.493511     -2.677861      0.075853
  C       1.129980     -1.937642      2.220737
  N      -1.072102      0.101746     -0.510201
  C      -2.350713      0.281765      0.194781
  C      -3.146202      1.492004     -0.274036
  H      -3.981631      1.648702      0.406399
  H      -3.574940      1.359735     -1.268313
  H      -2.544954      2.401504     -0.269322
  C      -3.171882     -0.998388      0.089842
  H      -2.079516      0.441372      1.239624
  H      -4.083688     -0.905414      0.678517
  H      -3.460177     -1.195828     -0.943431
  H      -2.628320     -1.865328      0.461748
  C      -0.917273      0.477951     -1.726970
  C       0.397996      0.320929     -2.265083
  H      -1.728790      0.915651     -2.299431
  C       1.428173      0.026776     -1.375924
  C       2.644156     -0.175927     -2.093529
  S       0.897859      0.380034     -3.888902
  C       2.501200     -0.009328     -3.439797
  H       1.662198      1.180810     -0.625215
  H       3.597385     -0.382788     -1.628867
  H       3.267372     -0.079717     -4.197000
  H      -0.613228     -3.288247     -0.289084
  H      -1.039131     -2.435600      2.263657
  H       1.282327     -1.485963      3.190870
  O       1.779426      2.282089      0.082449
  O       0.584287      1.042799      1.492002
  C       1.167480      2.113674      1.165941
  C       1.150366      3.247841      2.145021
  H       1.024525      4.197864      1.630384
  H       2.112457      3.285835      2.658865
  H       0.369872      3.118753      2.889127
  H       3.179687     -1.863937      1.328501
  H       1.974390     -2.944575     -0.853966
39
Coordinates from ORCA-job reaction4-IEIP_ts_guess_scan_11-13_orca E -1288.406010080691
  Ir      0.606250     -0.746419      0.429545
  C       0.121845     -2.852864      0.371662
  C      -0.111195     -2.394273      1.716799
  C       2.127760     -2.081518      1.219552
  C       1.494717     -2.678844      0.078230
  C       1.126934     -1.937435      2.222116
  N      -1.072306      0.101055     -0.509847
  C      -2.350691      0.280721      0.195633
  C      -3.145704      1.491854     -0.271695
  H      -3.980893      1.648061      0.409169
  H      -3.574706      1.361048     -1.266050
  H      -2.544108      2.401115     -0.265940
  C      -3.172205     -0.999035      0.088963
  H      -2.079264      0.439076      1.240588
  H      -4.084094     -0.906485      0.677593
  H      -3.460410     -1.195085     -0.944592
  H      -2.629054     -1.866707      0.459794
  C      -0.917548      0.478353     -1.726401
  C       0.397988      0.321101     -2.264306
  H      -1.728638      0.917077     -2.298645
  C       1.428350      0.025994     -1.375544
  C       2.644296     -0.175239     -2.093694
  S       0.897923      0.383240     -3.888001
  C       2.501269     -0.006430     -3.439714
  H       1.661838      1.181079     -0.628623
  H       3.597564     -0.382967     -1.629494
  H       3.267392     -0.075400     -4.197095
  H      -0.611169     -3.290288     -0.290356
  H      -1.042113     -2.435824      2.261100
  H       1.277381     -1.485239      3.192294
  O       1.778242      2.282748      0.078570
  O       0.585939      1.042582      1.490004
  C       1.168158      2.113933      1.162963
  C       1.151864      3.247711      2.142492
  H       1.024375      4.197767      1.628305
  H       2.114851      3.286178      2.654619
  H       0.372795      3.117871      2.887941
  H       3.178284     -1.863476      1.333350
  H       1.977451     -2.945846     -0.850547
39
Coordinates from ORCA-job reaction4-IEIP_ts_guess_scan_11-13_orca E -1288.406016108762
  Ir      0.606390     -0.747476      0.429371
  C       0.123619     -2.854221      0.370757
  C      -0.113091     -2.395130      1.715251
  C       2.126782     -2.080864      1.223595
  C       1.497230     -2.679477      0.081126
  C       1.123132     -1.937208      2.223650
  N      -1.072677      0.100641     -0.509169
  C      -2.350867      0.279854      0.196629
  C      -3.145212      1.492129     -0.268887
  H      -3.980413      1.647682      0.412126
  H      -3.574074      1.363213     -1.263542
  H      -2.543155      2.401070     -0.261511
  C      -3.172849     -0.999397      0.087721
  H      -2.079252      0.436521      1.241781
  H      -4.084766     -0.907557      0.676437
  H      -3.461066     -1.193527     -0.946188
  H      -2.630075     -1.867990      0.456948
  C      -0.918039      0.478714     -1.725728
  C       0.397780      0.321354     -2.263843
  H      -1.728839      0.918177     -2.297770
  C       1.428412      0.025804     -1.375382
  C       2.644073     -0.174962     -2.094389
  S       0.897075      0.384663     -3.887609
  C       2.500647     -0.005080     -3.440207
  H       1.661376      1.182550     -0.632484
  H       3.597544     -0.382928     -1.630691
  H       3.266535     -0.073397     -4.197880
  H      -0.607159     -3.293081     -0.292761
  H      -1.045400     -2.437117      2.257142
  H       1.270656     -1.484640      3.194098
  O       1.776996      2.284420      0.074525
  O       0.587962      1.042589      1.488026
  C       1.169052      2.114545      1.160029
  C       1.153595      3.247442      2.140486
  H       1.024211      4.197788      1.627273
  H       2.117580      3.286335      2.650703
  H       0.376102      3.116291      2.887323
  H       3.176850     -1.861987      1.339987
  H       1.982705     -2.946557     -0.846205
39
Coordinates from ORCA-job reaction4-IEIP_ts_guess_scan_11-13_orca E -1288.406019721821
  Ir      0.606714     -0.747715      0.429107
  C       0.126098     -2.855081      0.369160
  C      -0.114634     -2.396147      1.713116
  C       2.126090     -2.079471      1.227520
  C       1.500398     -2.679173      0.083652
  C       1.119378     -1.936965      2.224922
  N      -1.072928      0.100685     -0.508522
  C      -2.351019      0.279400      0.197410
  C      -3.144875      1.492626     -0.266452
  H      -3.980244      1.647479      0.414512
  H      -3.573401      1.365390     -1.261461
  H      -2.542464      2.401316     -0.257489
  C      -3.173302     -0.999496      0.086565
  H      -2.079294      0.434484      1.242771
  H      -4.085064     -0.908565      0.675665
  H      -3.461810     -1.191775     -0.947610
  H      -2.630533     -1.868856      0.454021
  C      -0.918590      0.478901     -1.725186
  C       0.397268      0.321575     -2.263865
  H      -1.729423      0.918526     -2.297053
  C       1.428215      0.026209     -1.375607
  C       2.643406     -0.175337     -2.095476
  S       0.895434      0.383908     -3.887873
  C       2.499341     -0.005915     -3.441212
  H       1.660885      1.184566     -0.635441
  H       3.597141     -0.383052     -1.632186
  H       3.264827     -0.074693     -4.199245
  H      -0.602214     -3.295397     -0.296083
  H      -1.048386     -2.439066      2.252449
  H       1.263616     -1.484321      3.195828
  O       1.776164      2.286248      0.071916
  O       0.589603      1.042859      1.486728
  C       1.169852      2.115230      1.158256
  C       1.155224      3.247213      2.139714
  H       1.024622      4.197999      1.627597
  H       2.119951      3.286150      2.648533
  H       0.378863      3.114924      2.887508
  H       3.175627     -1.859600      1.346790
  H       1.988832     -2.945871     -0.842240
39
Coordinates from ORCA-job reaction4-IEIP_ts_guess_scan_11-13_orca E -1288.406022298388
  Ir      0.607237     -0.747425      0.428836
  C       0.129960     -2.855654      0.366551
  C      -0.116198     -2.397669      1.709970
  C       2.125553     -2.076998      1.232473
  C       1.505104     -2.677783      0.086536
  C       1.114779     -1.936709      2.226448
  N      -1.073186      0.100929     -0.507865
  C      -2.351235      0.279005      0.198181
  C      -3.144457      1.493429     -0.263561
  H      -3.980068      1.647381      0.417297
  H      -3.572560      1.368314     -1.259020
  H      -2.541568      2.401778     -0.252606
  C      -3.173957     -0.999426      0.084948
  H      -2.079476      0.432028      1.243844
  H      -4.085310     -0.909746      0.674863
  H      -3.463170     -1.189205     -0.949498
  H      -2.631017     -1.869766      0.449846
  C      -0.919443      0.478880     -1.724656
  C       0.396196      0.321638     -2.264232
  H      -1.730611      0.918238     -2.296285
  C       1.427604      0.026894     -1.376225
  C       2.642108     -0.176367     -2.097072
  S       0.892758      0.381486     -3.888643
  C       2.497089     -0.008566     -3.442804
  H       1.660116      1.186974     -0.638183
  H       3.596179     -0.383569     -1.634222
  H       3.261952     -0.078641     -4.201343
  H      -0.595026     -3.297706     -0.301151
  H      -1.051863     -2.442164      2.245855
  H       1.254530     -1.484225      3.198082
  O       1.775531      2.288112      0.069999
  O       0.591236      1.043386      1.485826
  C       1.170791      2.115987      1.157120
  C       1.157336      3.247154      2.139537
  H       1.026030      4.198457      1.628552
  H       2.122725      3.285769      2.647137
  H       0.381925      3.114031      2.888162
  H       3.174331     -1.855678      1.355650
  H       1.997446     -2.943383     -0.837609
39
Coordinates from ORCA-job reaction4-IEIP_ts_guess_scan_11-13_orca E -1288.406023458319
  Ir      0.607679     -0.746795      0.428691
  C       0.134097     -2.855710      0.363516
  C      -0.117558     -2.399325      1.706564
  C       2.125162     -2.074089      1.237268
  C       1.510060     -2.675567      0.089033
  C       1.110348     -1.936569      2.227899
  N      -1.073391      0.101108     -0.507412
  C      -2.351404      0.278599      0.198849
  C      -3.143950      1.494268     -0.260704
  H      -3.979667      1.647379      0.420204
  H      -3.571869      1.371280     -1.256508
  H      -2.540509      2.402221     -0.247924
  C      -3.174651     -0.999319      0.083315
  H      -2.079636      0.429535      1.244812
  H      -4.085383     -0.910902      0.674366
  H      -3.464922     -1.186478     -0.951318
  H      -2.631439     -1.870684      0.445391
  C      -0.920426      0.478505     -1.724329
  C       0.394824      0.321325     -2.264789
  H      -1.732118      0.917300     -2.295695
  C       1.426698      0.027336     -1.377062
  C       2.640582     -0.177677     -2.098604
  S       0.890014      0.378511     -3.889599
  C       2.494672     -0.011797     -3.444400
  H       1.659186      1.188554     -0.639911
  H       3.594924     -0.384416     -1.636090
  H       3.258929     -0.083306     -4.203414
  H      -0.587537     -3.299193     -0.306850
  H      -1.055179     -2.445534      2.238876
  H       1.245536     -1.484460      3.200350
  O       1.775347      2.289065      0.069123
  O       0.592309      1.044018      1.485559
  C       1.171631      2.116519      1.156764
  C       1.159486      3.247433      2.139553
  H       1.028355      4.199049      1.629121
  H       2.125241      3.285387      2.646514
  H       0.384519      3.114369      2.888660
  H       3.173139     -1.851252      1.364451
  H       2.006272     -2.939499     -0.833527
39
Coordinates from ORCA-job reaction4-IEIP_ts_guess_scan_11-13_orca E -1288.406024087705
  Ir      0.607978     -0.746119      0.428737
  C       0.138346     -2.855473      0.360267
  C      -0.118758     -2.401158      1.703086
  C       2.124870     -2.071029      1.241964
  C       1.515117     -2.672861      0.091269
  C       1.106114     -1.936645      2.229363
  N      -1.073636      0.100959     -0.507079
  C      -2.351559      0.278043      0.199554
  C      -3.143168      1.495175     -0.257676
  H      -3.978795      1.647622      0.423489
  H      -3.571191      1.374472     -1.253717
  H      -2.538946      2.402575     -0.243191
  C      -3.175618     -0.999160      0.081667
  H      -2.079761      0.426797      1.245813
  H      -4.085570     -0.911878      0.674079
  H      -3.467234     -1.183493     -0.953099
  H      -2.632265     -1.871722      0.440679
  C      -0.921572      0.477633     -1.724177
  C       0.393238      0.320454     -2.265401
  H      -1.733879      0.915717     -2.295255
  C       1.425576      0.027197     -1.378010
  C       2.639025     -0.178957     -2.099924
  S       0.887506      0.375665     -3.890549
  C       2.492380     -0.014683     -3.445812
  H       1.658063      1.188924     -0.640822
  H       3.593570     -0.385321     -1.637659
  H       3.256143     -0.087229     -4.205225
  H      -0.579968     -3.300075     -0.312909
  H      -1.058361     -2.449069      2.231744
  H       1.236777     -1.485086      3.202683
  O       1.775526      2.288968      0.068722
  O       0.592892      1.044662      1.485734
  C       1.172384      2.116792      1.156720
  C       1.161594      3.248052      2.139200
  H       1.031334      4.199684      1.628609
  H       2.127455      3.285154      2.646024
  H       0.386646      3.115933      2.888515
  H       3.172022     -1.846663      1.373192
  H       2.015095     -2.934668     -0.829867
39
Coordinates from ORCA-job reaction4-IEIP_ts_guess_scan_11-13_orca E -1288.406024686000
  Ir      0.608065     -0.745658      0.428959
  C       0.141914     -2.855178      0.357421
  C      -0.119826     -2.402854      1.700116
  C       2.124558     -2.068480      1.246050
  C       1.519398     -2.670398      0.093144
  C       1.102475     -1.936924      2.230708
  N      -1.073913      0.100437     -0.506768
  C      -2.351683      0.277337      0.200326
  C      -3.142193      1.495999     -0.254711
  H      -3.977565      1.648043      0.426866
  H      -3.570543      1.377512     -1.250880
  H      -2.537055      2.402754     -0.238774
  C      -3.176722     -0.999037      0.080253
  H      -2.079809      0.424068      1.246830
  H      -4.085921     -0.912619      0.673948
  H      -3.469660     -1.180706     -0.954611
  H      -2.633436     -1.872825      0.436425
  C      -0.922688      0.476370     -1.724135
  C       0.391779      0.319127     -2.265888
  H      -1.735543      0.913778     -2.294967
  C       1.424511      0.026354     -1.378866
  C       2.637815     -0.179796     -2.100846
  S       0.885732      0.373857     -3.891244
  C       2.490714     -0.016146     -3.446791
  H       1.656993      1.188003     -0.641096
  H       3.592494     -0.385921     -1.638753
  H       3.254208     -0.088857     -4.206462
  H      -0.573569     -3.300507     -0.318279
  H      -1.061176     -2.452097      2.225544
  H       1.229312     -1.485974      3.204809
  O       1.776037      2.287982      0.068285
  O       0.593090      1.045221      1.486024
  C       1.173056      2.116836      1.156512
  C       1.163382      3.248864      2.138153
  H       1.034358      4.200235      1.626798
  H       2.129122      3.285134      2.645265
  H       0.388116      3.118250      2.887424
  H       3.170995     -1.842863      1.380811
  H       2.022547     -2.930131     -0.826856
39
Coordinates from ORCA-job reaction4-IEIP_ts_guess_scan_11-13_orca E -1288.406025520351
  Ir      0.608024     -0.745567      0.429258
  C       0.144151     -2.855115      0.355650
  C      -0.120642     -2.404053      1.698256
  C       2.124257     -2.067033      1.248941
  C       1.522136     -2.668961      0.094554
  C       1.099978     -1.937271      2.231740
  N      -1.074176      0.099731     -0.506410
  C      -2.351783      0.276646      0.201056
  C      -3.141240      1.496622     -0.252313
  H      -3.976349      1.648536      0.429629
  H      -3.569892      1.379929     -1.248563
  H      -2.535241      2.402776     -0.235276
  C      -3.177754     -0.998949      0.079259
  H      -2.079823      0.421841      1.247731
  H      -4.086472     -0.913009      0.673769
  H      -3.471570     -1.178611     -0.955704
  H      -2.634765     -1.873760      0.433417
  C      -0.923519      0.475075     -1.724087
  C       0.390787      0.317749     -2.266108
  H      -1.736714      0.912006     -2.294789
  C       1.423806      0.025121     -1.379431
  C       2.637208     -0.179960     -2.101345
  S       0.884859      0.373488     -3.891533
  C       2.489905     -0.015838     -3.447272
  H       1.656294      1.186400     -0.641070
  H       3.591984     -0.385942     -1.639399
  H       3.253360     -0.087856     -4.207054
  H      -0.569447     -3.300842     -0.321773
  H      -1.063189     -2.454012      2.221475
  H       1.224334     -1.486815      3.206383
  O       1.776678      2.286743      0.067520
  O       0.593148      1.045592      1.486084
  C       1.173611      2.116771      1.155880
  C       1.164496      3.249566      2.136617
  H       1.036545      4.200585      1.624355
  H       2.129998      3.285287      2.644219
  H       0.388782      3.120311      2.885667
  H       3.170227     -1.840687      1.386098
  H       2.027376     -2.927305     -0.824692
39
Coordinates from ORCA-job reaction4-IEIP_ts_guess_scan_11-13_orca E -1288.406026316279
  Ir      0.608003     -0.745722      0.429456
  C       0.144990     -2.855323      0.355060
  C      -0.121157     -2.404559      1.697550
  C       2.124016     -2.066687      1.250413
  C       1.523218     -2.668708      0.095433
  C       1.098735     -1.937474      2.232306
  N      -1.074317      0.099230     -0.506060
  C      -2.351822      0.276207      0.201564
  C      -3.140602      1.496970     -0.250901
  H      -3.975590      1.648882      0.431198
  H      -3.569345      1.381332     -1.247232
  H      -2.534062      2.402747     -0.233180
  C      -3.178366     -0.998902      0.078771
  H      -2.079798      0.420559      1.248329
  H      -4.086957     -0.913129      0.673508
  H      -3.472450     -1.177534     -0.956293
  H      -2.635695     -1.874293      0.432018
  C      -0.923890      0.474240     -1.723971
  C       0.390392      0.316882     -2.266097
  H      -1.737200      0.910940     -2.294671
  C       1.423579      0.024177     -1.379662
  C       2.637117     -0.179681     -2.101595
  S       0.884599      0.374014     -3.891520
  C       2.489724     -0.014679     -3.447447
  H       1.656137      1.185181     -0.641075
  H       3.591980     -0.385574     -1.639794
  H       3.253238     -0.085823     -4.207254
  H      -0.567753     -3.301273     -0.323108
  H      -1.064255     -2.454691      2.219765
  H       1.222039     -1.487267      3.207195
  O       1.777182      2.286014      0.066642
  O       0.593260      1.045762      1.485803
  C       1.173983      2.116749      1.155050
  C       1.164853      3.249913      2.135314
  H       1.037458      4.200738      1.622550
  H       2.130139      3.285437      2.643342
  H       0.388778      3.121276      2.884090
  H       3.169797     -1.840126      1.388655
  H       2.029411     -2.926614     -0.823413
