39
Generated by autodE on: 2023-08-15. E = -1288.401713 Ha
Ir    0.60803  -0.72294   0.44515
C     0.10832  -2.83170   0.36366
C    -0.04097  -2.36128   1.71572
C     2.16909  -2.08441   1.09305
C     1.45495  -2.65960  -0.01829
C     1.24278  -1.93081   2.15259
N    -1.06043   0.12502  -0.51315
C    -2.33749   0.34480   0.18402
C    -3.13630   1.52265  -0.35558
H    -3.96799   1.72178   0.31852
H    -3.57178   1.32585  -1.33620
H    -2.53688   2.43150  -0.41240
C    -3.15667  -0.94094   0.15805
H    -2.06121   0.56491   1.21626
H    -4.06900  -0.81066   0.73865
H    -3.44471  -1.20284  -0.86090
H    -2.61390  -1.78189   0.58641
C    -0.90087   0.44334  -1.74421
C     0.42144   0.27457  -2.27232
H    -1.71092   0.84819  -2.34299
C     1.48835   0.15871  -1.38537
C     2.69103  -0.11454  -2.10207
S     0.87236   0.08091  -3.89842
C     2.50537  -0.17622  -3.45002
H     1.62111   1.15634  -0.59435
H     3.66381  -0.20070  -1.64020
H     3.25056  -0.33892  -4.21383
H    -0.67330  -3.24681  -0.25593
H    -0.93533  -2.40022   2.31888
H     1.45990  -1.48907   3.11496
O     1.70531   2.30556   0.17533
O     0.54036   1.00969   1.55933
C     1.10431   2.10973   1.24509
C     1.04611   3.20713   2.26701
H     1.01477   4.18080   1.78435
H     1.95331   3.17234   2.87289
H     0.19496   3.09046   2.93260
H     3.22459  -1.86367   1.13317
H     1.87635  -2.91787  -0.97875
