39
Generated by autodE on: 2023-08-15. E = -1288.398372 Ha
Ir    0.60059  -0.73651   0.49154
C     0.09057  -2.83214   0.36154
C    -0.02213  -2.37066   1.72186
C     2.17481  -2.11608   1.05628
C     1.42567  -2.65941  -0.05161
C     1.28455  -1.97117   2.14088
N    -1.04008   0.12202  -0.49973
C    -2.31994   0.37767   0.18315
C    -3.09198   1.55723  -0.39017
H    -3.92405   1.79003   0.27290
H    -3.52495   1.34622  -1.36883
H    -2.47363   2.45193  -0.46509
C    -3.15951  -0.89460   0.18301
H    -2.04766   0.61782   1.21184
H    -4.07250  -0.73568   0.75526
H    -3.44665  -1.17702  -0.83072
H    -2.63221  -1.73313   0.63543
C    -0.87521   0.38309  -1.74273
C     0.45105   0.21778  -2.27273
H    -1.68968   0.74816  -2.36187
C     1.55557   0.29751  -1.43471
C     2.74533  -0.00680  -2.15290
S     0.85777  -0.17255  -3.88125
C     2.51797  -0.26988  -3.47057
H     1.58267   1.25282  -0.59523
H     3.73614   0.02535  -1.72365
H     3.24529  -0.49580  -4.23564
H    -0.71232  -3.22523  -0.24520
H    -0.90232  -2.41100   2.34609
H     1.53097  -1.55197   3.10622
O     1.54913   2.34725   0.18217
O     0.54926   0.97282   1.62208
C     1.03213   2.10740   1.28424
C     0.98065   3.18143   2.33066
H     0.91930   4.16496   1.87207
H     1.90265   3.14828   2.91433
H     0.15008   3.03389   3.01636
H     3.23054  -1.89200   1.06469
H     1.82151  -2.89283  -1.02926
