39
Coordinates from ORCA-job reaction4-IEIP_ts_guess_scan_2-3_orca E -1288.397716017398
  Ir      0.583436     -0.721744      0.445709
  C       0.032129     -2.802783      0.319608
  C       0.132579     -2.359841      1.690287
  C       2.202922     -2.132397      0.712301
  C       1.287938     -2.634400     -0.288555
  C       1.504000     -2.004772      1.924549
  N      -1.048868      0.183453     -0.519920
  C      -2.316758      0.525755      0.142934
  C      -3.142169      1.552027     -0.615485
  H      -3.973298      1.868194      0.013286
  H      -3.580262      1.151936     -1.531395
  H      -2.564975      2.444311     -0.860184
  C      -3.111549     -0.745869      0.412811
  H      -2.019066      0.959462      1.099171
  H      -4.022437     -0.497789      0.955438
  H      -3.401829     -1.237061     -0.516934
  H      -2.556211     -1.455843      1.024120
  C      -0.833769      0.385659     -1.759075
  C       0.522839      0.140807     -2.204590
  H      -1.599722      0.753321     -2.436019
  C       1.625738      0.542492     -1.461369
  C       2.830622      0.101027     -2.081080
  S       0.949202     -0.705530     -3.627193
  C       2.618299     -0.574318     -3.241423
  H       1.533378      1.401984     -0.681120
  H       3.816753      0.325544     -1.701187
  H       3.355742     -0.987928     -3.912745
  H      -0.864391     -3.162147     -0.164830
  H      -0.646274     -2.398686      2.437898
  H       1.903786     -1.619106      2.851394
  O       1.262634      2.475342      0.266438
  O       0.545228      0.893894      1.668562
  C       0.887817      2.108060      1.374034
  C       0.823760      3.063831      2.533160
  H       0.762230      4.089666      2.180137
  H       1.735648      2.968393      3.125854
  H      -0.013256      2.845910      3.193426
  H       3.244470     -1.895855      0.552091
  H       1.533056     -2.845810     -1.319365
39
Coordinates from ORCA-job reaction4-IEIP_ts_guess_scan_2-3_orca E -1288.396740686196
  Ir      0.586278     -0.711054      0.438218
  C       0.047043     -2.796058      0.302578
  C       0.138779     -2.359398      1.675677
  C       2.212132     -2.114986      0.708042
  C       1.304636     -2.618236     -0.298948
  C       1.506691     -1.996202      1.917370
  N      -1.057185      0.186993     -0.526939
  C      -2.322262      0.532495      0.138434
  C      -3.153545      1.547758     -0.628258
  H      -3.983157      1.868741      0.000074
  H      -3.593858      1.136010     -1.537951
  H      -2.579819      2.438801     -0.885366
  C      -3.111533     -0.738639      0.425913
  H      -2.021199      0.977532      1.088387
  H      -4.020498     -0.487529      0.970350
  H      -3.404837     -1.240747     -0.497017
  H      -2.550766     -1.440155      1.042079
  C      -0.849835      0.375508     -1.770722
  C       0.506901      0.131231     -2.216108
  H      -1.620337      0.730908     -2.449072
  C       1.605282      0.557119     -1.478811
  C       2.813272      0.102074     -2.083850
  S       0.939636     -0.751948     -3.613694
  C       2.606731     -0.608953     -3.223499
  H       1.510298      1.466051     -0.747723
  H       3.797740      0.345885     -1.711732
  H       3.347687     -1.036997     -3.881671
  H      -0.845045     -3.158728     -0.187523
  H      -0.642898     -2.407031      2.419755
  H       1.899969     -1.612220      2.847682
  O       1.390074      2.444877      0.324990
  O       0.525132      0.896591      1.674382
  C       0.927768      2.096866      1.406148
  C       0.824820      3.056776      2.558913
  H       0.825183      4.083541      2.203159
  H       1.691999      2.928147      3.209564
  H      -0.060970      2.871853      3.163124
  H       3.253196     -1.872697      0.553957
  H       1.555864     -2.824990     -1.329172
39
Coordinates from ORCA-job reaction4-IEIP_ts_guess_scan_2-3_orca E -1288.397807528537
  Ir      0.590154     -0.726386      0.447448
  C       0.032126     -2.808148      0.328938
  C       0.129028     -2.362873      1.698844
  C       2.203605     -2.142791      0.726926
  C       1.290785     -2.645646     -0.275391
  C       1.500090     -2.009162      1.936077
  N      -1.046393      0.182422     -0.520670
  C      -2.312718      0.524757      0.143152
  C      -3.136199      1.552057     -0.615879
  H      -3.967752      1.869075      0.011894
  H      -3.573361      1.152512     -1.532526
  H      -2.557751      2.443748     -0.859860
  C      -3.107833     -0.746761      0.412012
  H      -2.014092      0.957354      1.099595
  H      -4.018186     -0.498737      0.955537
  H      -3.399031     -1.236698     -0.518099
  H      -2.552194     -1.457621      1.022119
  C      -0.833717      0.392611     -1.761494
  C       0.522389      0.152812     -2.216036
  H      -1.602052      0.766212     -2.432488
  C       1.627672      0.535300     -1.463923
  C       2.829565      0.095461     -2.092938
  S       0.943499     -0.677402     -3.649143
  C       2.613236     -0.563626     -3.261066
  H       1.548751      1.416547     -0.693996
  H       3.817421      0.313797     -1.714059
  H       3.348079     -0.969637     -3.939682
  H      -0.863558     -3.166732     -0.157592
  H      -0.651999     -2.398896      2.444206
  H       1.897640     -1.621839      2.863175
  O       1.251915      2.470953      0.266932
  O       0.541843      0.893350      1.673281
  C       0.882345      2.106417      1.378039
  C       0.816995      3.066271      2.533484
  H       0.751249      4.090677      2.176992
  H       1.730131      2.976128      3.125005
  H      -0.018197      2.847591      3.195635
  H       3.246666     -1.911152      0.570403
  H       1.539214     -2.862759     -1.304113
39
Coordinates from ORCA-job reaction4-IEIP_ts_guess_scan_2-3_orca E -1288.396906918548
  Ir      0.575039     -0.725662      0.456452
  C       0.015109     -2.806820      0.363852
  C       0.108897     -2.343553      1.727635
  C       2.186056     -2.138691      0.758027
  C       1.275348     -2.653807     -0.239633
  C       1.479463     -1.988354      1.963526
  N      -1.053028      0.167359     -0.527125
  C      -2.324045      0.504619      0.131827
  C      -3.152045      1.527085     -0.629013
  H      -3.986521      1.839594     -0.002837
  H      -3.585567      1.124832     -1.546152
  H      -2.578255      2.421995     -0.872141
  C      -3.113912     -0.770368      0.400175
  H      -2.030703      0.939658      1.088779
  H      -4.027027     -0.526193      0.940863
  H      -3.400038     -1.262915     -0.530125
  H      -2.556518     -1.477674      1.012653
  C      -0.839815      0.377716     -1.766976
  C       0.516269      0.152633     -2.227882
  H      -1.610184      0.751388     -2.435295
  C       1.621252      0.512306     -1.465657
  C       2.826028      0.122775     -2.120830
  S       0.939792     -0.608456     -3.697686
  C       2.611411     -0.476973     -3.321157
  H       1.527913      1.326560     -0.632384
  H       3.812844      0.328969     -1.732374
  H       3.347212     -0.840669     -4.022481
  H      -0.879850     -3.170471     -0.120249
  H      -0.674277     -2.368129      2.471195
  H       1.874985     -1.588866      2.886322
  O       1.437098      2.437808      0.305778
  O       0.528927      0.909363      1.658103
  C       0.954926      2.100636      1.382446
  C       0.857878      3.069355      2.528102
  H       0.879795      4.093693      2.166184
  H       1.716207      2.929529      3.188118
  H      -0.037006      2.903594      3.124480
  H       3.229808     -1.910063      0.601119
  H       1.525907     -2.884612     -1.264897
39
Coordinates from ORCA-job reaction4-IEIP_ts_guess_scan_2-3_orca E -1288.397857651282
  Ir      0.583956     -0.721321      0.449626
  C       0.029300     -2.803096      0.335809
  C       0.122218     -2.354191      1.704439
  C       2.198664     -2.133549      0.736346
  C       1.289047     -2.640369     -0.266596
  C       1.491881     -1.997581      1.943528
  N      -1.047321      0.179772     -0.521855
  C      -2.316689      0.516871      0.140321
  C      -3.143809      1.543606     -0.615739
  H      -3.976855      1.855409      0.012688
  H      -3.579289      1.145479     -1.533752
  H      -2.568769      2.438374     -0.856453
  C      -3.108818     -0.757435      0.405214
  H      -2.021061      0.947998      1.098373
  H      -4.020717     -0.513261      0.947953
  H      -3.397209     -1.246096     -0.526438
  H      -2.552122     -1.468031      1.014464
  C      -0.834154      0.390906     -1.761880
  C       0.520548      0.154375     -2.220032
  H      -1.604040      0.761769     -2.432325
  C       1.627517      0.527986     -1.466579
  C       2.828348      0.094092     -2.100598
  S       0.939372     -0.654473     -3.665310
  C       2.609918     -0.547609     -3.278139
  H       1.550723      1.394680     -0.681405
  H       3.816667      0.301738     -1.716827
  H       3.343277     -0.948034     -3.961696
  H      -0.864828     -3.163961     -0.151888
  H      -0.660595     -2.388902      2.447952
  H       1.886634     -1.606778      2.870352
  O       1.311471      2.463079      0.280129
  O       0.531709      0.900117      1.668026
  C       0.903175      2.105888      1.380411
  C       0.830881      3.066918      2.534347
  H       0.796328      4.092523      2.177049
  H       1.727108      2.956631      3.147920
  H      -0.024882      2.866407      3.175723
  H       3.241837     -1.900837      0.581803
  H       1.539948     -2.859905     -1.294219
39
Coordinates from ORCA-job reaction4-IEIP_ts_guess_scan_2-3_orca E -1288.397868239900
  Ir      0.587325     -0.725540      0.450995
  C       0.027730     -2.806422      0.339553
  C       0.120995     -2.356581      1.707785
  C       2.198580     -2.141894      0.740550
  C       1.288189     -2.647532     -0.262420
  C       1.491356     -2.002745      1.947083
  N      -1.045660      0.178837     -0.522594
  C      -2.314501      0.517233      0.139821
  C      -3.139351      1.546156     -0.615658
  H      -3.972053      1.858887      0.012752
  H      -3.575182      1.149774     -1.534268
  H      -2.562576      2.440099     -0.855282
  C      -3.109160     -0.755891      0.402939
  H      -2.018441      0.946998      1.098337
  H      -4.020920     -0.510474      0.945310
  H      -3.397885     -1.243092     -0.529374
  H      -2.554262     -1.468165      1.011832
  C      -0.834623      0.387977     -1.763536
  C       0.519678      0.153878     -2.222080
  H      -1.605849      0.757108     -2.433539
  C       1.624475      0.527893     -1.465997
  C       2.827146      0.101552     -2.101526
  S       0.941015     -0.660134     -3.663422
  C       2.611402     -0.539702     -3.279949
  H       1.544813      1.400474     -0.686265
  H       3.814583      0.315742     -1.719132
  H       3.346441     -0.933472     -3.965552
  H      -0.866979     -3.165621     -0.148338
  H      -0.662238     -2.388854      2.450963
  H       1.886608     -1.611954      2.873708
  O       1.291997      2.467172      0.273686
  O       0.537300      0.898666      1.669707
  C       0.898779      2.106447      1.378495
  C       0.832097      3.067273      2.532886
  H       0.786214      4.092551      2.175936
  H       1.735791      2.963500      3.136576
  H      -0.015081      2.860661      3.183676
  H       3.242534     -1.912367      0.586646
  H       1.539083     -2.869247     -1.289565
39
Coordinates from ORCA-job reaction4-IEIP_ts_guess_scan_2-3_orca E -1288.397877465658
  Ir      0.587094     -0.724601      0.451085
  C       0.028849     -2.805469      0.338694
  C       0.121176     -2.356180      1.707084
  C       2.199107     -2.139857      0.740797
  C       1.289494     -2.645636     -0.262763
  C       1.491151     -2.001531      1.947048
  N      -1.045324      0.178285     -0.522429
  C      -2.314182      0.516175      0.140392
  C      -3.138724      1.546550     -0.613486
  H      -3.971078      1.858843      0.015611
  H      -3.575095      1.151732     -1.532507
  H      -2.561542      2.440513     -0.852041
  C      -3.109475     -0.756943      0.401728
  H      -2.018034      0.944556      1.099494
  H      -4.021230     -0.511816      0.944239
  H      -3.398226     -1.242816     -0.531270
  H      -2.555044     -1.470285      1.009797
  C      -0.835066      0.387227     -1.763464
  C       0.518982      0.154691     -2.223158
  H      -1.607071      0.755708     -2.432926
  C       1.623772      0.527866     -1.466793
  C       2.826525      0.099294     -2.100427
  S       0.941003     -0.651658     -3.668371
  C       2.610829     -0.542131     -3.278860
  H       1.544126      1.399146     -0.685560
  H       3.813846      0.309101     -1.715328
  H       3.345786     -0.939280     -3.962610
  H      -0.865432     -3.164893     -0.149824
  H      -0.662439     -2.389019      2.449824
  H       1.885741     -1.610746      2.873959
  O       1.291871      2.467240      0.272985
  O       0.536499      0.899073      1.669269
  C       0.897767      2.106718      1.377639
  C       0.832078      3.067766      2.531926
  H       0.786425      4.093020      2.174904
  H       1.736065      2.963670      3.135145
  H      -0.014824      2.861554      3.183214
  H       3.243047     -1.909762      0.587595
  H       1.540924     -2.866911     -1.289873
39
Coordinates from ORCA-job reaction4-IEIP_ts_guess_scan_2-3_orca E -1288.397881782833
  Ir      0.586064     -0.723654      0.452645
  C       0.029497     -2.804449      0.338156
  C       0.120107     -2.356192      1.706925
  C       2.198868     -2.137599      0.742765
  C       1.290634     -2.643265     -0.262051
  C       1.489532     -2.000671      1.948433
  N      -1.044597      0.177471     -0.521261
  C      -2.313686      0.515162      0.141453
  C      -3.137216      1.547573     -0.610846
  H      -3.969190      1.859790      0.018808
  H      -3.574178      1.154752     -1.530433
  H      -2.559043      2.441249     -0.848058
  C      -3.110130     -0.757744      0.400362
  H      -2.017720      0.941779      1.101384
  H      -4.022025     -0.512783      0.942727
  H      -3.398677     -1.241947     -0.533565
  H      -2.556611     -1.472509      1.007620
  C      -0.834646      0.385448     -1.762467
  C       0.518943      0.152660     -2.223284
  H      -1.607361      0.752441     -2.431902
  C       1.624412      0.524556     -1.467105
  C       2.826846      0.097278     -2.101976
  S       0.940288     -0.651248     -3.669889
  C       2.610482     -0.540087     -3.282568
  H       1.545107      1.394723     -0.684440
  H       3.814351      0.305984     -1.716777
  H       3.344981     -0.934903     -3.968163
  H      -0.864051     -3.163997     -0.151617
  H      -0.664315     -2.389873      2.448765
  H       1.882923     -1.610179      2.875977
  O       1.295180      2.464004      0.273391
  O       0.534730      0.899027      1.670099
  C       0.898290      2.105655      1.377798
  C       0.831277      3.068690      2.530406
  H       0.787201      4.093405      2.171671
  H       1.734084      2.964740      3.135426
  H      -0.016981      2.864281      3.180502
  H       3.242840     -1.906727      0.590910
  H       1.543158     -2.863648     -1.289080
39
Coordinates from ORCA-job reaction4-IEIP_ts_guess_scan_2-3_orca E -1288.397887779905
  Ir      0.586382     -0.723904      0.454419
  C       0.029893     -2.804626      0.339534
  C       0.119405     -2.356504      1.708391
  C       2.199022     -2.137927      0.745875
  C       1.291527     -2.643520     -0.259702
  C       1.488647     -2.000952      1.950946
  N      -1.044317      0.176459     -0.520889
  C      -2.313750      0.513356      0.141706
  C      -3.135600      1.548720     -0.608440
  H      -3.967374      1.860541      0.021685
  H      -3.572847      1.158908     -1.529171
  H      -2.556015      2.442113     -0.843242
  C      -3.111551     -0.759575      0.396280
  H      -2.018363      0.937117      1.103052
  H      -4.023817     -0.515325      0.938341
  H      -3.399484     -1.240983     -0.539280
  H      -2.559301     -1.476533      1.002132
  C      -0.835308      0.383886     -1.762465
  C       0.517854      0.152409     -2.224580
  H      -1.609185      0.749265     -2.431463
  C       1.623236      0.522516     -1.467300
  C       2.825853      0.097472     -2.103043
  S       0.939622     -0.648025     -3.672814
  C       2.609688     -0.537265     -3.285178
  H       1.543653      1.392762     -0.684294
  H       3.813262      0.305610     -1.717329
  H       3.344261     -0.930031     -3.971868
  H      -0.863256     -3.164044     -0.151083
  H      -0.665680     -2.390034      2.449535
  H       1.881349     -1.610482      2.878796
  O       1.295467      2.463270      0.272619
  O       0.535522      0.899948      1.671356
  C       0.899052      2.106142      1.377657
  C       0.833031      3.070620      2.529117
  H       0.788184      4.094875      2.169185
  H       1.736629      2.967705      3.133141
  H      -0.014340      2.866708      3.180521
  H       3.243215     -1.907368      0.595091
  H       1.544802     -2.864113     -1.286497
