39
Generated by autodE on: 2023-08-14. E = -1288.396985 Ha
Ir    0.59576  -0.73761   0.49837
C     0.07521  -2.82899   0.36643
C    -0.00273  -2.36953   1.73014
C     2.17807  -2.12607   1.01429
C     1.39953  -2.65921  -0.07940
C     1.31816  -1.98188   2.12124
N    -1.03695   0.12635  -0.49992
C    -2.31732   0.39495   0.17730
C    -3.08982   1.56122  -0.42126
H    -3.92192   1.80819   0.23668
H    -3.52307   1.32858  -1.39491
H    -2.47192   2.45439  -0.51567
C    -3.15561  -0.87777   0.20558
H    -2.04463   0.65672   1.20066
H    -4.07004  -0.70527   0.77150
H    -3.44014  -1.18517  -0.80160
H    -2.62905  -1.70417   0.68065
C    -0.86619   0.37293  -1.74463
C     0.46362   0.20439  -2.26832
H    -1.67805   0.72997  -2.37200
C     1.57230   0.34485  -1.44395
C     2.76211   0.02417  -2.15456
S     0.86754  -0.25522  -3.86045
C     2.53179  -0.30683  -3.45601
H     1.57048   1.28497  -0.60258
H     3.75463   0.09281  -1.73356
H     3.25817  -0.55849  -4.21394
H    -0.74498  -3.21398  -0.22216
H    -0.86833  -2.40771   2.37472
H     1.59067  -1.56954   3.08245
O     1.49771   2.36526   0.19174
O     0.54837   0.96078   1.63821
C     1.00745   2.10720   1.30007
C     0.95812   3.16725   2.36108
H     0.89725   4.15693   1.91612
H     1.87998   3.12447   2.94445
H     0.12821   3.01138   3.04601
H     3.23382  -1.90214   0.99535
H     1.77117  -2.88898  -1.06738
