39
Coordinates from ORCA-job reaction4-IEIP_ts_guess_scan_11-4_orca E -1288.399341697694
  Ir      0.632019     -0.712711      0.410618
  C       0.145879     -2.827775      0.302162
  C       0.009264     -2.378561      1.662565
  C       2.209606     -2.072322      1.017062
  C       1.486215     -2.639924     -0.092721
  C       1.294803     -1.942682      2.091316
  N      -1.054142      0.136319     -0.518250
  C      -2.314536      0.386739      0.197625
  C      -3.097528      1.575060     -0.341527
  H      -3.916790      1.796035      0.341151
  H      -3.548791      1.379167     -1.315109
  H      -2.481014      2.471325     -0.413196
  C      -3.155082     -0.885421      0.198625
  H      -2.015425      0.610358      1.222438
  H      -4.049387     -0.736447      0.802137
  H      -3.473829     -1.148142     -0.810901
  H      -2.613781     -1.732184      0.617874
  C      -0.909378      0.416780     -1.754446
  C       0.413993      0.213964     -2.260478
  H      -1.714564      0.815266     -2.363715
  C       1.466634      0.159830     -1.342352
  C       2.684150     -0.142681     -2.030143
  S       0.888478     -0.089152     -3.858227
  C       2.519858     -0.299934     -3.370484
  H       1.534523      1.158969     -0.626068
  H       3.650993     -0.183233     -1.549750
  H       3.276526     -0.504635     -4.112602
  H      -0.640694     -3.239781     -0.313287
  H      -0.879276     -2.430106      2.273420
  H       1.519722     -1.512808      3.057207
  O       1.523728      2.390933      0.124921
  O       0.563449      0.987324      1.560807
  C       1.024252      2.135082      1.227059
  C       0.959741      3.195805      2.288950
  H       0.912511      4.186004      1.843509
  H       1.869221      3.147193      2.890659
  H       0.115253      3.044273      2.956921
  H       3.264269     -1.846192      1.048232
  H       1.898500     -2.882542     -1.061260
39
Coordinates from ORCA-job reaction4-IEIP_ts_guess_scan_11-4_orca E -1288.399325947386
  Ir      0.629005     -0.704944      0.406106
  C       0.149192     -2.824192      0.303217
  C       0.012202     -2.375121      1.663491
  C       2.210200     -2.060794      1.016377
  C       1.488690     -2.632764     -0.092281
  C       1.295131     -1.933212      2.090392
  N      -1.063277      0.134886     -0.521149
  C      -2.323456      0.384851      0.195432
  C      -3.110000      1.568912     -0.347931
  H      -3.929468      1.790319      0.334327
  H      -3.561201      1.367890     -1.320503
  H      -2.496049      2.466639     -0.423542
  C      -3.160816     -0.889352      0.202381
  H      -2.024078      0.613380      1.219111
  H      -4.055020     -0.740258      0.806010
  H      -3.479773     -1.156963     -0.805811
  H      -2.617054     -1.733057      0.624588
  C      -0.918179      0.409683     -1.763421
  C       0.408441      0.209511     -2.272080
  H      -1.725020      0.802765     -2.373963
  C       1.459842      0.160934     -1.351955
  C       2.679534     -0.140242     -2.037151
  S       0.886346     -0.096083     -3.868375
  C       2.517532     -0.303117     -3.377069
  H       1.528296      1.181088     -0.654079
  H       3.646080     -0.174943     -1.555531
  H       3.275968     -0.508677     -4.117047
  H      -0.636067     -3.240214     -0.311251
  H      -0.875499     -2.429793      2.275200
  H       1.518855     -1.501819      3.055882
  O       1.619411      2.359948      0.172859
  O       0.548486      0.995610      1.561160
  C       1.055524      2.128535      1.249380
  C       0.969862      3.196305      2.302378
  H       0.974833      4.185202      1.851530
  H       1.846171      3.123655      2.949201
  H       0.088754      3.073350      2.927435
  H       3.264304     -1.832117      1.047641
  H       1.901669     -2.876612     -1.060222
39
Coordinates from ORCA-job reaction4-IEIP_ts_guess_scan_11-4_orca E -1288.398876823791
  Ir      0.638535     -0.710838      0.407487
  C       0.146719     -2.832175      0.301700
  C       0.014376     -2.391695      1.665006
  C       2.210979     -2.081453      1.015691
  C       1.486631     -2.645903     -0.094614
  C       1.296853     -1.955184      2.090561
  N      -1.053445      0.140783     -0.508601
  C      -2.313039      0.390606      0.208752
  C      -3.092530      1.583029     -0.326516
  H      -3.912916      1.802348      0.355249
  H      -3.541684      1.392303     -1.302137
  H      -2.474382      2.478647     -0.392802
  C      -3.156937     -0.879232      0.203043
  H      -2.014523      0.608689      1.234989
  H      -4.051673     -0.730962      0.806084
  H      -3.475235     -1.136442     -0.808093
  H      -2.618372     -1.729345      0.618993
  C      -0.899592      0.428749     -1.756789
  C       0.431615      0.225767     -2.273967
  H      -1.703824      0.832241     -2.363877
  C       1.479865      0.144253     -1.350865
  C       2.696247     -0.171797     -2.036963
  S       0.909834     -0.064130     -3.873121
  C       2.535242     -0.313446     -3.379178
  H       1.585719      1.189284     -0.668374
  H       3.661025     -0.228991     -1.553634
  H       3.292127     -0.524380     -4.119069
  H      -0.640833     -3.242925     -0.313445
  H      -0.872106     -2.446683      2.278235
  H       1.523368     -1.530036      3.058157
  O       1.428673      2.396053      0.106790
  O       0.556765      0.986900      1.579575
  C       0.981677      2.141190      1.232806
  C       0.936685      3.207322      2.289098
  H       0.850654      4.193543      1.840423
  H       1.869954      3.181788      2.854635
  H       0.122446      3.041548      2.990097
  H       3.266569     -1.860071      1.048605
  H       1.897901     -2.890164     -1.063195
39
Coordinates from ORCA-job reaction4-IEIP_ts_guess_scan_11-4_orca E -1288.399659969386
  Ir      0.630825     -0.712102      0.409932
  C       0.138768     -2.830187      0.313143
  C       0.006871     -2.381352      1.673719
  C       2.204455     -2.076660      1.021584
  C       1.478677     -2.646118     -0.085286
  C       1.291308     -1.944049      2.096937
  N      -1.057620      0.135152     -0.514662
  C      -2.318919      0.381793      0.199450
  C      -3.102572      1.569614     -0.339847
  H      -3.924631      1.787583      0.340417
  H      -3.549871      1.374439     -1.315421
  H      -2.487738      2.467314     -0.407865
  C      -3.157180     -0.891864      0.196114
  H      -2.022131      0.603688      1.225280
  H      -4.053106     -0.745804      0.797943
  H      -3.473246     -1.153136     -0.814631
  H      -2.615189     -1.738439      0.614894
  C      -0.909017      0.420900     -1.755839
  C       0.418129      0.223513     -2.268579
  H      -1.715019      0.821278     -2.362598
  C       1.467802      0.149482     -1.347327
  C       2.687353     -0.148506     -2.035280
  S       0.896764     -0.060228     -3.868351
  C       2.527114     -0.282273     -3.378580
  H       1.549806      1.171665     -0.643144
  H       3.652754     -0.197791     -1.552638
  H       3.285872     -0.477304     -4.121120
  H      -0.649571     -3.243024     -0.299497
  H      -0.879834     -2.431466      2.287182
  H       1.518735     -1.513093      3.061742
  O       1.531765      2.393709      0.123746
  O       0.564262      0.992285      1.559585
  C       1.029438      2.137693      1.226410
  C       0.966775      3.200118      2.285591
  H       0.921787      4.189790      1.838697
  H       1.875734      3.150453      2.887926
  H       0.121321      3.050704      2.952640
  H       3.259927     -1.854362      1.051823
  H       1.888770     -2.894224     -1.053352
39
Coordinates from ORCA-job reaction4-IEIP_ts_guess_scan_11-4_orca E -1288.399706830809
  Ir      0.630673     -0.712358      0.410335
  C       0.138460     -2.830261      0.316334
  C       0.006003     -2.380996      1.676543
  C       2.203768     -2.076361      1.024826
  C       1.478628     -2.646693     -0.081808
  C       1.289996     -1.943109      2.099644
  N      -1.057380      0.134031     -0.515798
  C      -2.318992      0.379987      0.198173
  C      -3.103663      1.567620     -0.340189
  H      -3.925612      1.784749      0.340459
  H      -3.551259      1.372634     -1.315640
  H      -2.489411      2.465737     -0.407994
  C      -3.156893     -0.893960      0.194831
  H      -2.022218      0.601677      1.224147
  H      -4.052970     -0.748201      0.796538
  H      -3.472689     -1.155311     -0.815969
  H      -2.614699     -1.740307      0.613706
  C      -0.909118      0.421505     -1.755960
  C       0.417004      0.225348     -2.269745
  H      -1.715436      0.822927     -2.361519
  C       1.466482      0.146406     -1.348858
  C       2.685738     -0.149025     -2.038143
  S       0.896631     -0.042759     -3.871756
  C       2.525034     -0.277986     -3.381890
  H       1.551049      1.172654     -0.649633
  H       3.650836     -0.203547     -1.555536
  H       3.283257     -0.472502     -4.125098
  H      -0.649556     -3.243594     -0.296375
  H      -0.881058     -2.430394      2.289547
  H       1.517049     -1.511281      3.064157
  O       1.546417      2.387259      0.129181
  O       0.562579      0.993312      1.558741
  C       1.033167      2.136230      1.227947
  C       0.968159      3.201017      2.284968
  H       0.930743      4.190144      1.836184
  H       1.872772      3.148308      2.893604
  H       0.117508      3.056603      2.946524
  H       3.259285     -1.854369      1.055679
  H       1.889086     -2.895945     -1.049414
39
Coordinates from ORCA-job reaction4-IEIP_ts_guess_scan_11-4_orca E -1288.399755401780
  Ir      0.629930     -0.716102      0.412741
  C       0.132765     -2.832635      0.326628
  C       0.001024     -2.381438      1.685994
  C       2.199338     -2.081831      1.033375
  C       1.473632     -2.653183     -0.072001
  C       1.285173     -1.944521      2.107622
  N      -1.056282      0.132031     -0.516264
  C      -2.319189      0.374911      0.196882
  C      -3.105750      1.562701     -0.338536
  H      -3.928165      1.776682      0.342484
  H      -3.552973      1.369475     -1.314501
  H      -2.492985      2.462032     -0.403918
  C      -3.155859     -0.899928      0.190348
  H      -2.023618      0.594543      1.223762
  H      -4.052998     -0.756118      0.790956
  H      -3.469820     -1.159875     -0.821386
  H      -2.613445     -1.746353      0.608635
  C      -0.907428      0.425962     -1.754486
  C       0.416894      0.231310     -2.270853
  H      -1.714087      0.830462     -2.357496
  C       1.465145      0.135591     -1.350169
  C       2.684561     -0.150972     -2.042797
  S       0.897627     -0.010403     -3.876398
  C       2.525746     -0.252143     -3.389232
  H       1.556584      1.168627     -0.656936
  H       3.648845     -0.216598     -1.560039
  H       3.284763     -0.432800     -4.135115
  H      -0.655843     -3.245809     -0.285432
  H      -0.886450     -2.427100      2.298653
  H       1.512996     -1.510616      3.071036
  O       1.564124      2.378897      0.128575
  O       0.565351      0.994854      1.555706
  C       1.042993      2.133551      1.225346
  C       0.973633      3.204683      2.276071
  H       0.941399      4.191475      1.821771
  H       1.874235      3.153224      2.890723
  H       0.118401      3.065817      2.932928
  H       3.255440     -1.862762      1.064783
  H       1.883661     -2.906450     -1.038723
39
Coordinates from ORCA-job reaction4-IEIP_ts_guess_scan_11-4_orca E -1288.399779314003
  Ir      0.627630     -0.722109      0.416256
  C       0.123218     -2.836119      0.341900
  C      -0.008051     -2.381118      1.699850
  C       2.191507     -2.089639      1.046845
  C       1.465337     -2.662889     -0.056865
  C       1.276372     -1.945570      2.119869
  N      -1.055248      0.128829     -0.516465
  C      -2.320168      0.365576      0.195468
  C      -3.109979      1.553015     -0.335950
  H      -3.933519      1.761540      0.345319
  H      -3.556009      1.362236     -1.312978
  H      -2.500090      2.454606     -0.397310
  C      -3.153600     -0.911406      0.182759
  H      -2.027085      0.582035      1.223805
  H      -4.052945     -0.771606      0.780991
  H      -3.463728     -1.169135     -0.830730
  H      -2.610439     -1.757686      0.600248
  C      -0.904875      0.435309     -1.751380
  C       0.418002      0.245366     -2.270708
  H      -1.711468      0.846457     -2.349995
  C       1.463842      0.120711     -1.350442
  C       2.683570     -0.153028     -2.047972
  S       0.902896      0.053796     -3.881339
  C       2.527320     -0.215468     -3.397194
  H       1.565822      1.158559     -0.658310
  H       3.646072     -0.240049     -1.565068
  H       3.286890     -0.380451     -4.146148
  H      -0.666001     -3.249280     -0.269401
  H      -0.896391     -2.420909      2.311605
  H       1.504962     -1.508001      3.081460
  O       1.578754      2.374408      0.118467
  O       0.570517      0.997882      1.548060
  C       1.051381      2.133207      1.214153
  C       0.986304      3.209288      2.260304
  H       0.956839      4.194137      1.801671
  H       1.887190      3.157765      2.874512
  H       0.131020      3.075864      2.918183
  H       3.248407     -1.874662      1.079316
  H       1.875116     -2.922269     -1.022045
39
Coordinates from ORCA-job reaction4-IEIP_ts_guess_scan_11-4_orca E -1288.399778520462
  Ir      0.627126     -0.724573      0.416829
  C       0.119882     -2.837323      0.345537
  C      -0.012337     -2.380378      1.702871
  C       2.188513     -2.092867      1.051999
  C       1.462918     -2.666663     -0.051793
  C       1.272221     -1.945897      2.123753
  N      -1.054350      0.128688     -0.515975
  C      -2.319444      0.362968      0.196368
  C      -3.110889      1.549627     -0.334240
  H      -3.934475      1.756492      0.347471
  H      -3.556943      1.358831     -1.311275
  H      -2.502331      2.452147     -0.395209
  C      -3.151171     -0.915085      0.182180
  H      -2.026825      0.579081      1.224890
  H      -4.051464     -0.776602      0.779306
  H      -3.459687     -1.172880     -0.831772
  H      -2.607640     -1.760906      0.600049
  C      -0.903558      0.441324     -1.749612
  C       0.418807      0.251959     -2.270295
  H      -1.709895      0.855840     -2.346180
  C       1.464134      0.114764     -1.351149
  C       2.683156     -0.155919     -2.051002
  S       0.903695      0.074948     -3.882619
  C       2.527411     -0.201785     -3.401073
  H       1.572354      1.151793     -0.656034
  H       3.645181     -0.251789     -1.568788
  H       3.286906     -0.360316     -4.151497
  H      -0.669014     -3.250414     -0.266210
  H      -0.901474     -2.417931      2.313602
  H       1.500376     -1.506993      3.084843
  O       1.587873      2.370393      0.116372
  O       0.571695      0.998063      1.545078
  C       1.057532      2.131371      1.211311
  C       0.987389      3.210966      2.253317
  H       0.958505      4.194048      1.790827
  H       1.886180      3.162640      2.870774
  H       0.129857      3.079043      2.908512
  H       3.245675     -1.879327      1.085625
  H       1.873482     -2.928149     -1.016055
39
Coordinates from ORCA-job reaction4-IEIP_ts_guess_scan_11-4_orca E -1288.399777846570
  Ir      0.626405     -0.725220      0.416636
  C       0.118924     -2.837501      0.347033
  C      -0.015944     -2.378241      1.703560
  C       2.186539     -2.092780      1.056998
  C       1.462986     -2.667843     -0.047515
  C       1.268107     -1.943834      2.126676
  N      -1.054629      0.129302     -0.516158
  C      -2.320044      0.360982      0.196500
  C      -3.113996      1.545900     -0.334240
  H      -3.937702      1.751175      0.347813
  H      -3.560046      1.353907     -1.311053
  H      -2.507413      2.449724     -0.395658
  C      -3.149370     -0.918589      0.181802
  H      -2.027954      0.577820      1.224988
  H      -4.050795     -0.781386      0.777540
  H      -3.455984     -1.177480     -0.832434
  H      -2.605189     -1.763349      0.600844
  C      -0.903328      0.447094     -1.748742
  C       0.418767      0.257662     -2.270190
  H      -1.709304      0.864113     -2.343934
  C       1.463978      0.111213     -1.352451
  C       2.681971     -0.158645     -2.054067
  S       0.902661      0.087469     -3.883750
  C       2.526080     -0.193500     -3.404598
  H       1.578348      1.145544     -0.652587
  H       3.643826     -0.260622     -1.572741
  H       3.285298     -0.348082     -4.156127
  H      -0.668631     -3.251522     -0.265783
  H      -0.906227     -2.414798      2.312685
  H       1.494505     -1.503523      3.087538
  O       1.599187      2.365407      0.117697
  O       0.569644      0.999154      1.542750
  C       1.060602      2.130734      1.209515
  C       0.991467      3.211290      2.250362
  H       0.967030      4.193842      1.786455
  H       1.888606      3.160791      2.870014
  H       0.131819      3.083010      2.903435
  H       3.243661     -1.879311      1.092479
  H       1.875515     -2.930717     -1.010553
39
Coordinates from ORCA-job reaction4-IEIP_ts_guess_scan_11-4_orca E -1288.399775212687
  Ir      0.625786     -0.724663      0.415685
  C       0.119728     -2.836984      0.346762
  C      -0.019638     -2.374905      1.702207
  C       2.185075     -2.090559      1.062608
  C       1.465119     -2.667407     -0.043336
  C       1.263240     -1.940080      2.129152
  N      -1.055422      0.131080     -0.516348
  C      -2.321330      0.359150      0.196717
  C      -3.119257      1.541394     -0.334148
  H      -3.943157      1.744251      0.348396
  H      -3.565318      1.347472     -1.310586
  H      -2.515767      2.447244     -0.396280
  C      -3.147161     -0.922631      0.181491
  H      -2.029881      0.577134      1.225118
  H      -4.050113     -0.787316      0.775384
  H      -3.451221     -1.183082     -0.833102
  H      -2.601969     -1.765869      0.602109
  C      -0.903500      0.455182     -1.747486
  C       0.418198      0.265612     -2.269914
  H      -1.708929      0.875605     -2.340883
  C       1.463711      0.108787     -1.354642
  C       2.679620     -0.162610     -2.058674
  S       0.899995      0.102431     -3.885222
  C       2.521985     -0.189873     -3.409374
  H       1.587400      1.137573     -0.646568
  H       3.641499     -0.271997     -1.579024
  H       3.279853     -0.344285     -4.162298
  H      -0.665439     -3.252756     -0.267890
  H      -0.911549     -2.411296      2.308963
  H       1.486482     -1.498236      3.090044
  O       1.622376      2.356296      0.125007
  O       0.566108      1.000720      1.540535
  C       1.070045      2.128246      1.211148
  C       0.995290      3.211681      2.248284
  H       0.978639      4.192799      1.780901
  H       1.886741      3.159981      2.875912
  H       0.129273      3.088640      2.893840
  H       3.241937     -1.876266      1.100947
  H       1.880921     -2.931277     -1.004696
39
Coordinates from ORCA-job reaction4-IEIP_ts_guess_scan_11-4_orca E -1288.399764032248
  Ir      0.624207     -0.721425      0.414242
  C       0.122783     -2.835028      0.345731
  C      -0.024017     -2.369495      1.699531
  C       2.183480     -2.083480      1.070510
  C       1.469817     -2.663670     -0.037617
  C       1.256186     -1.932517      2.132302
  N      -1.057862      0.134042     -0.516898
  C      -2.325055      0.356596      0.195518
  C      -3.129186      1.534241     -0.336402
  H      -3.954195      1.733118      0.345929
  H      -3.574129      1.336858     -1.312679
  H      -2.530828      2.443452     -0.399189
  C      -3.145096     -0.928889      0.179534
  H      -2.035240      0.576646      1.223964
  H      -4.050449     -0.796894      0.770557
  H      -3.445079     -1.191713     -0.835654
  H      -2.597949     -1.769588      0.602531
  C      -0.905063      0.464961     -1.746095
  C       0.415852      0.275757     -2.269822
  H      -1.710080      0.888845     -2.337529
  C       1.461980      0.107991     -1.358050
  C       2.674596     -0.167547     -2.065362
  S       0.893589      0.116964     -3.887349
  C       2.513859     -0.188728     -3.416033
  H       1.600005      1.128537     -0.638945
  H       3.636842     -0.284547     -1.588286
  H       3.269512     -0.345123     -4.170771
  H      -0.658276     -3.254288     -0.271734
  H      -0.918260     -2.407226      2.302766
  H       1.473889     -1.488557      3.093492
  O       1.660866      2.341133      0.140635
  O       0.559101      1.004415      1.538339
  C       1.085134      2.124432      1.216542
  C       1.005689      3.211341      2.249464
  H       1.003600      4.190930      1.778444
  H       1.888477      3.154558      2.888712
  H       0.130108      3.097951      2.883697
  H       3.239669     -1.866684      1.113231
  H       1.890891     -2.928178     -0.996515
39
Coordinates from ORCA-job reaction4-IEIP_ts_guess_scan_11-4_orca E -1288.399763158459
  Ir      0.622896     -0.718509      0.413707
  C       0.125730     -2.833760      0.344705
  C      -0.024754     -2.367770      1.697942
  C       2.183373     -2.077709      1.073376
  C       1.473151     -2.659871     -0.035773
  C       1.253496     -1.928355      2.133209
  N      -1.060216      0.134989     -0.517433
  C      -2.328301      0.355548      0.193839
  C      -3.134524      1.531505     -0.338675
  H      -3.960494      1.728635      0.342961
  H      -3.578293      1.332940     -1.315253
  H      -2.538122      2.442023     -0.401047
  C      -3.146181     -0.931365      0.177165
  H      -2.039588      0.576156      1.222528
  H      -4.052400     -0.800974      0.767222
  H      -3.444670     -1.194538     -0.838383
  H      -2.598162     -1.771269      0.600587
  C      -0.907015      0.466199     -1.746272
  C       0.413693      0.277886     -2.270131
  H      -1.712143      0.889956     -2.337703
  C       1.460174      0.110043     -1.359223
  C       2.671749     -0.168060     -2.067265
  S       0.889561      0.115988     -3.888080
  C       2.509560     -0.191858     -3.417744
  H       1.603846      1.127287     -0.636314
  H       3.634425     -0.284677     -1.590967
  H       3.264375     -0.350800     -4.172787
  H      -0.653146     -3.255174     -0.274039
  H      -0.919894     -2.407552      2.299707
  H       1.468162     -1.483713      3.094772
  O       1.676758      2.335771      0.148596
  O       0.555449      1.007213      1.538097
  C       1.092230      2.123234      1.220478
  C       1.014183      3.210604      2.253120
  H       1.017561      4.190140      1.781954
  H       1.894934      3.150528      2.894870
  H       0.136222      3.101004      2.884698
  H       3.239033     -1.858735      1.118050
  H       1.896712     -2.923769     -0.993753
39
Coordinates from ORCA-job reaction4-IEIP_ts_guess_scan_11-4_orca E -1288.399770627272
  Ir      0.621286     -0.716199      0.413759
  C       0.128047     -2.833037      0.344150
  C      -0.024751     -2.368145      1.697341
  C       2.183197     -2.072793      1.074941
  C       1.475456     -2.656427     -0.034846
  C       1.251707     -1.925977      2.133848
  N      -1.062523      0.134476     -0.518071
  C      -2.331200      0.354676      0.192007
  C      -3.137402      1.530556     -0.340616
  H      -3.964124      1.727027      0.340265
  H      -3.580165      1.332174     -1.317688
  H      -2.541244      2.441286     -0.401997
  C      -3.148650     -0.932583      0.174594
  H      -2.043233      0.574917      1.221038
  H      -4.054816     -0.803144      0.764924
  H      -3.447179     -1.194898     -0.841181
  H      -2.600054     -1.772607      0.597121
  C      -0.909235      0.463068     -1.747316
  C       0.411570      0.276160     -2.270789
  H      -1.714816      0.884938     -2.339603
  C       1.458089      0.112500     -1.359327
  C       2.670000     -0.166300     -2.066930
  S       0.887187      0.110051     -3.888301
  C       2.507691     -0.194373     -3.417238
  H       1.603771      1.129467     -0.636695
  H       3.632986     -0.279385     -1.590397
  H       3.262634     -0.354552     -4.171892
  H      -0.649375     -3.255920     -0.275429
  H      -0.920401     -2.410059      2.298190
  H       1.464204     -1.481132      3.095804
  O       1.681557      2.335671      0.151251
  O       0.553382      1.009765      1.537799
  C       1.095487      2.123460      1.222473
  C       1.022766      3.209674      2.256977
  H       1.025770      4.189940      1.787328
  H       1.905911      3.147694      2.895281
  H       0.146988      3.100401      2.891624
  H       3.238406     -1.851928      1.120836
  H       1.900447     -2.919250     -0.992495
39
Coordinates from ORCA-job reaction4-IEIP_ts_guess_scan_11-4_orca E -1288.399773276574
  Ir      0.619980     -0.715700      0.414060
  C       0.128800     -2.833064      0.344427
  C      -0.025829     -2.368921      1.697612
  C       2.182328     -2.070517      1.077263
  C       1.476461     -2.655136     -0.033112
  C       1.249433     -1.924998      2.135276
  N      -1.063955      0.133538     -0.518502
  C      -2.332871      0.353380      0.191191
  C      -3.138684      1.529661     -0.341021
  H      -3.965676      1.725776      0.339634
  H      -3.581073      1.331979     -1.318407
  H      -2.542305      2.440290     -0.401561
  C      -3.150249     -0.933950      0.172899
  H      -2.045287      0.572944      1.220477
  H      -4.056159     -0.805260      0.763775
  H      -3.449166     -1.195231     -0.843036
  H      -2.601227     -1.774294      0.594278
  C      -0.910686      0.461330     -1.747928
  C       0.410297      0.275439     -2.271197
  H      -1.716608      0.882105     -2.340587
  C       1.456648      0.112603     -1.359275
  C       2.669072     -0.165105     -2.066774
  S       0.886460      0.110062     -3.888486
  C       2.507326     -0.192307     -3.417126
  H       1.604210      1.130037     -0.637431
  H       3.632024     -0.277272     -1.589944
  H       3.262662     -0.351154     -4.171668
  H      -0.647542     -3.256700     -0.275989
  H      -0.922162     -2.411649      2.297371
  H       1.460318     -1.479774      3.097414
  O       1.684958      2.335530      0.151304
  O       0.552340      1.011502      1.536319
  C       1.097811      2.123634      1.222181
  C       1.028619      3.209438      2.257469
  H       1.029556      4.189915      1.788225
  H       1.914340      3.147628      2.892219
  H       0.155304      3.099679      2.895390
  H       3.237297     -1.848778      1.124384
  H       1.902603     -2.917474     -0.990385
39
Coordinates from ORCA-job reaction4-IEIP_ts_guess_scan_11-4_orca E -1288.399774514891
  Ir      0.618777     -0.715640      0.414227
  C       0.129954     -2.833233      0.343724
  C      -0.027453     -2.369932      1.696928
  C       2.181400     -2.068402      1.080258
  C       1.478167     -2.653893     -0.031274
  C       1.246400     -1.924304      2.136794
  N      -1.065258      0.132502     -0.518856
  C      -2.334162      0.352063      0.190970
  C      -3.139320      1.529109     -0.340458
  H      -3.966305      1.725085      0.340262
  H      -3.581683      1.332515     -1.318074
  H      -2.542378      2.439412     -0.400171
  C      -3.151754     -0.935117      0.171645
  H      -2.046678      0.570730      1.220452
  H      -4.057132     -0.807128      0.763482
  H      -3.451537     -1.195045     -0.844381
  H      -2.602342     -1.776033      0.591403
  C      -0.912191      0.460004     -1.748430
  C       0.409074      0.274803     -2.271453
  H      -1.718418      0.879783     -2.341381
  C       1.455388      0.112444     -1.359237
  C       2.668248     -0.164120     -2.066670
  S       0.885751      0.110103     -3.888543
  C       2.506984     -0.190402     -3.417077
  H       1.605195      1.129864     -0.637758
  H       3.631137     -0.275712     -1.589561
  H       3.262619     -0.347906     -4.171600
  H      -0.644830     -3.257574     -0.278153
  H      -0.924956     -2.413405      2.294877
  H       1.455026     -1.478775      3.099282
  O       1.689050      2.334962      0.151257
  O       0.550912      1.013158      1.534142
  C       1.100149      2.123755      1.221433
  C       1.033391      3.209349      2.257104
  H       1.030098      4.189762      1.787676
  H       1.922469      3.149670      2.887349
  H       0.163370      3.097931      2.899166
  H       3.236087     -1.845762      1.129353
  H       1.906123     -2.915429     -0.987965
39
Coordinates from ORCA-job reaction4-IEIP_ts_guess_scan_11-4_orca E -1288.399773928936
  Ir      0.618299     -0.715906      0.414291
  C       0.131094     -2.833411      0.342439
  C      -0.028894     -2.370738      1.695666
  C       2.180830     -2.067355      1.082827
  C       1.479926     -2.653173     -0.029969
  C       1.243853     -1.924247      2.137877
  N      -1.065853      0.131865     -0.518854
  C      -2.334636      0.351184      0.191362
  C      -3.139179      1.529127     -0.339017
  H      -3.966039      1.724968      0.341909
  H      -3.581661      1.333776     -1.316826
  H      -2.541655      2.439099     -0.397883
  C      -3.152632     -0.935696      0.170859
  H      -2.047073      0.568872      1.221002
  H      -4.057494     -0.808243      0.763602
  H      -3.453284     -1.194236     -0.845258
  H      -2.603078     -1.777320      0.589024
  C      -0.913035      0.459644     -1.748438
  C       0.408415      0.274591     -2.271383
  H      -1.719405      0.879030     -2.341444
  C       1.454849      0.112144     -1.359218
  C       2.667764     -0.163939     -2.066777
  S       0.885209      0.110435     -3.888452
  C       2.506583     -0.189673     -3.417211
  H       1.606373      1.129281     -0.637804
  H       3.630620     -0.275610     -1.589614
  H       3.262201     -0.346584     -4.171873
  H      -0.642289     -3.258141     -0.280912
  H      -0.927554     -2.414614      2.291847
  H       1.450492     -1.478726      3.100791
  O       1.692505      2.334135      0.151339
  O       0.549940      1.014152      1.532374
  C       1.101687      2.123841      1.220659
  C       1.035224      3.209644      2.256061
  H       1.026676      4.189683      1.785835
  H       1.927348      3.153705      2.882327
  H       0.168286      3.095800      2.901787
  H       3.235323     -1.844247      1.133892
  H       1.909632     -2.913928     -0.986098
