39
Generated by autodE on: 2023-08-13. E = -1288.399241 Ha
Ir    0.59851  -0.71595   0.44522
C     0.04865  -2.80207   0.34444
C     0.11464  -2.34840   1.71123
C     2.20922  -2.12363   0.77781
C     1.31932  -2.64093  -0.23722
C     1.47613  -1.98021   1.96994
N    -1.04647   0.16662  -0.52324
C    -2.31515   0.48690   0.14906
C    -3.12194   1.56462  -0.55715
H    -3.94940   1.86244   0.08541
H    -3.56496   1.22092  -1.49328
H    -2.52778   2.45736  -0.75461
C    -3.12608  -0.78883   0.34183
H    -2.02037   0.86357   1.12980
H    -4.03714  -0.56218   0.89354
H    -3.41589  -1.22286  -0.61600
H    -2.58042  -1.53878   0.91269
C    -0.85382   0.37779  -1.76767
C     0.49470   0.15652  -2.23990
H    -1.63772   0.73902  -2.42699
C     1.59104   0.45504  -1.43671
C     2.79893   0.04938  -2.07577
S     0.92981  -0.56633  -3.72001
C     2.59413  -0.50931  -3.29783
H     1.52851   1.35151  -0.66853
H     3.78239   0.21768  -1.66158
H     3.33400  -0.87198  -3.99528
H    -0.83444  -3.16911  -0.15861
H    -0.68196  -2.38023   2.43980
H     1.85199  -1.58000   2.90065
O     1.31991   2.46356   0.24967
O     0.53414   0.91975   1.65434
C     0.91164   2.11784   1.35602
C     0.85305   3.09360   2.49801
H     0.81366   4.11496   2.12941
H     1.75738   2.99053   3.10095
H     0.00567   2.89976   3.15235
H     3.25670  -1.89698   0.64627
H     1.58879  -2.87239  -1.25733
