39
Coordinates from ORCA-job reaction4-IEIP_ts_guess_scan_4-7_orca E -1288.397697877128
  Ir      0.588111     -0.719819      0.452974
  C       0.036581     -2.802407      0.342923
  C       0.112201     -2.354956      1.711566
  C       2.200924     -2.129499      0.766232
  C       1.303380     -2.638604     -0.246368
  C       1.477001     -1.991773      1.964100
  N      -1.051392      0.163330     -0.520870
  C      -2.323366      0.482248      0.147040
  C      -3.132980      1.553832     -0.565549
  H      -3.961661      1.852511      0.075045
  H      -3.574521      1.204023     -1.500097
  H      -2.541719      2.447466     -0.767692
  C      -3.131762     -0.794199      0.345156
  H      -2.032590      0.865547      1.126536
  H      -4.046431     -0.565986      0.890252
  H      -3.415439     -1.236126     -0.610921
  H      -2.587758     -1.538519      0.924877
  C      -0.852769      0.372773     -1.763652
  C       0.498431      0.158145     -2.226015
  H      -1.634838      0.728584     -2.428282
  C       1.587925      0.462537     -1.417952
  C       2.800353      0.064556     -2.051195
  S       0.944833     -0.550626     -3.712096
  C       2.605299     -0.487710     -3.278929
  H       1.511269      1.357538     -0.623962
  H       3.781181      0.233305     -1.630710
  H       3.351712     -0.842723     -3.973535
  H      -0.850551     -3.164995     -0.156276
  H      -0.679618     -2.390340      2.445276
  H       1.860146     -1.598703      2.894878
  O       1.333434      2.448399      0.235339
  O       0.539384      0.922198      1.654836
  C       0.924818      2.113486      1.347065
  C       0.879600      3.101101      2.478451
  H       0.836659      4.118639      2.099750
  H       1.791189      3.003865      3.071461
  H       0.039813      2.914031      3.144322
  H       3.246999     -1.900457      0.627136
  H       1.565524     -2.861482     -1.270376
39
Coordinates from ORCA-job reaction4-IEIP_ts_guess_scan_4-7_orca E -1288.395481229702
  Ir      0.592366     -0.702047      0.442311
  C       0.062329     -2.790332      0.305651
  C       0.125159     -2.359839      1.680080
  C       2.216937     -2.100438      0.750346
  C       1.330890     -2.606653     -0.273649
  C       1.484091     -1.984392      1.945110
  N      -1.059259      0.173490     -0.525687
  C      -2.327034      0.497947      0.146240
  C      -3.143757      1.556748     -0.577137
  H      -3.969738      1.862448      0.063618
  H      -3.589253      1.191952     -1.504070
  H      -2.556149      2.448941     -0.795685
  C      -3.129725     -0.778227      0.367607
  H      -2.030816      0.895782      1.118280
  H      -4.041294     -0.545543      0.915985
  H      -3.418587     -1.234235     -0.580257
  H      -2.578881     -1.512594      0.953603
  C      -0.869626      0.361963     -1.774030
  C       0.481095      0.139606     -2.233521
  H      -1.656121      0.700013     -2.442672
  C       1.566569      0.488331     -1.437020
  C       2.780581      0.057080     -2.046604
  S       0.931434     -0.643278     -3.680222
  C       2.589747     -0.561264     -3.242868
  H       1.492393      1.458371     -0.722577
  H       3.760606      0.254705     -1.637053
  H       3.338815     -0.949610     -3.916355
  H      -0.817823     -3.156311     -0.203295
  H      -0.670360     -2.413381      2.408586
  H       1.857385     -1.598792      2.882972
  O       1.445661      2.409464      0.303696
  O       0.512521      0.920553      1.667613
  C       0.954620      2.097069      1.389112
  C       0.868831      3.090402      2.512921
  H       0.884414      4.107306      2.130277
  H       1.736273      2.965536      3.164070
  H      -0.018201      2.933824      3.122931
  H       3.261597     -1.859967      0.620785
  H       1.601681     -2.815439     -1.298351
39
Coordinates from ORCA-job reaction4-IEIP_ts_guess_scan_4-7_orca E -1288.397802937485
  Ir      0.591789     -0.719000      0.456206
  C       0.044138     -2.804519      0.341485
  C       0.111932     -2.361448      1.711651
  C       2.204918     -2.127528      0.776751
  C       1.313723     -2.636692     -0.241248
  C       1.474014     -1.994190      1.971211
  N      -1.049342      0.164755     -0.518644
  C      -2.319750      0.485045      0.149703
  C      -3.127380      1.556870     -0.564642
  H      -3.956481      1.857241      0.074592
  H      -3.567923      1.206427     -1.499462
  H      -2.534770      2.449547     -0.767152
  C      -3.128579     -0.790985      0.348278
  H      -2.028034      0.868156      1.128976
  H      -4.042573     -0.562505      0.894371
  H      -3.413383     -1.232547     -0.607623
  H      -2.583935     -1.535561      0.927176
  C      -0.852080      0.379524     -1.762726
  C       0.498401      0.165831     -2.232867
  H      -1.635409      0.741337     -2.422588
  C       1.592458      0.451300     -1.421829
  C       2.799198      0.047797     -2.064799
  S       0.934379     -0.538451     -3.723844
  C       2.596436     -0.492114     -3.295976
  H       1.536383      1.367520     -0.636388
  H       3.783112      0.207793     -1.648170
  H       3.337949     -0.845609     -3.996466
  H      -0.839529     -3.168432     -0.162834
  H      -0.682997     -2.401719      2.441622
  H       1.851467     -1.602539      2.904887
  O       1.326088      2.437553      0.241567
  O       0.527776      0.920704      1.663581
  C       0.918644      2.108803      1.356365
  C       0.865711      3.103336      2.481025
  H       0.822135      4.118510      2.095951
  H       1.774676      3.011925      3.078872
  H       0.023145      2.918144      3.143745
  H       3.251398     -1.897037      0.644030
  H       1.581663     -2.858051     -1.264049
39
Coordinates from ORCA-job reaction4-IEIP_ts_guess_scan_4-7_orca E -1288.395948612936
  Ir      0.576887     -0.725784      0.461241
  C       0.013734     -2.808909      0.393862
  C       0.085656     -2.335889      1.753420
  C       2.179579     -2.138170      0.812593
  C       1.283925     -2.663878     -0.192872
  C       1.450315     -1.972775      2.003944
  N      -1.062576      0.142642     -0.533067
  C      -2.337603      0.456157      0.130992
  C      -3.152462      1.520482     -0.586520
  H      -3.984799      1.815661      0.050946
  H      -3.589165      1.164958     -1.521181
  H      -2.566468      2.417337     -0.789779
  C      -3.137825     -0.825143      0.331008
  H      -2.051213      0.843553      1.110099
  H      -4.054471     -0.602038      0.874914
  H      -3.417622     -1.270868     -0.624435
  H      -2.588862     -1.564460      0.912473
  C      -0.867510      0.356436     -1.777300
  C       0.485212      0.171593     -2.249772
  H      -1.653873      0.716989     -2.434007
  C       1.570325      0.439696     -1.423619
  C       2.788784      0.109392     -2.085194
  S       0.939041     -0.445511     -3.773225
  C       2.600528     -0.368006     -3.344723
  H       1.477529      1.289305     -0.575030
  H       3.767591      0.269903     -1.656752
  H       3.351214     -0.663310     -4.062267
  H      -0.872942     -3.177393     -0.101806
  H      -0.709132     -2.353852      2.484435
  H       1.831117     -1.562925      2.928415
  O       1.568745      2.387359      0.288658
  O       0.526783      0.942893      1.635237
  C       1.019060      2.100367      1.353764
  C       0.938715      3.105117      2.467421
  H       1.008752      4.117390      2.078729
  H       1.778708      2.949923      3.147441
  H       0.026594      2.989823      3.049002
  H       3.227712     -1.918534      0.674246
  H       1.549387     -2.910345     -1.210548
39
Coordinates from ORCA-job reaction4-IEIP_ts_guess_scan_4-7_orca E -1288.397877294644
  Ir      0.585176     -0.715625      0.458832
  C       0.034524     -2.801211      0.361756
  C       0.100422     -2.347053      1.728041
  C       2.195320     -2.123471      0.794669
  C       1.305297     -2.640103     -0.220375
  C       1.462178     -1.978896      1.986563
  N      -1.053530      0.160776     -0.522298
  C      -2.329142      0.469240      0.142801
  C      -3.142376      1.539828     -0.567199
  H      -3.975500      1.830285      0.071399
  H      -3.577848      1.192111     -1.505377
  H      -2.555663      2.438008     -0.762372
  C      -3.130618     -0.813071      0.331197
  H      -2.043740      0.848402      1.125462
  H      -4.047844     -0.593817      0.875704
  H      -3.409467     -1.250712     -0.628255
  H      -2.582967     -1.557519      0.907270
  C      -0.854338      0.384206     -1.764622
  C       0.495167      0.177787     -2.239323
  H      -1.639037      0.746707     -2.422244
  C       1.590904      0.442360     -1.424128
  C       2.796047      0.050999     -2.076721
  S       0.928544     -0.484838     -3.749609
  C       2.590797     -0.457981     -3.320661
  H       1.541083      1.342535     -0.619090
  H       3.780562      0.195918     -1.655928
  H       3.330663     -0.797781     -4.029590
  H      -0.848757     -3.168131     -0.141034
  H      -0.695798     -2.380216      2.456927
  H       1.838432     -1.579653      2.917507
  O       1.416560      2.424818      0.260204
  O       0.519899      0.934793      1.653738
  C       0.954096      2.110652      1.358096
  C       0.896433      3.107179      2.480513
  H       0.899057      4.122928      2.094594
  H       1.781325      2.986508      3.108530
  H       0.026403      2.949957      3.114334
  H       3.242483     -1.895916      0.662133
  H       1.574625     -2.870811     -1.240705
39
Coordinates from ORCA-job reaction4-IEIP_ts_guess_scan_4-7_orca E -1288.397903223395
  Ir      0.591390     -0.722661      0.458951
  C       0.031737     -2.806235      0.363922
  C       0.097470     -2.351383      1.729776
  C       2.194746     -2.137496      0.799217
  C       1.303953     -2.651120     -0.216663
  C       1.460256     -1.988361      1.989739
  N      -1.048239      0.159804     -0.523206
  C      -2.322139      0.472002      0.143746
  C      -3.132901      1.545959     -0.563965
  H      -3.964175      1.838380      0.076138
  H      -3.570868      1.200688     -1.501871
  H      -2.543660      2.442508     -0.758952
  C      -3.128239     -0.807480      0.331987
  H      -2.034324      0.849469      1.126406
  H      -4.044207     -0.585145      0.877371
  H      -3.409494     -1.243460     -0.627511
  H      -2.582960     -1.554280      0.907087
  C      -0.852543      0.378790     -1.766970
  C       0.495963      0.174092     -2.241089
  H      -1.638447      0.739353     -2.424259
  C       1.587659      0.443988     -1.423690
  C       2.796156      0.060565     -2.074420
  S       0.933451     -0.498806     -3.745290
  C       2.595796     -0.449023     -3.319237
  H       1.532680      1.357675     -0.631794
  H       3.779262      0.215577     -1.653925
  H       3.338920     -0.781103     -4.028399
  H      -0.852266     -3.169927     -0.139922
  H      -0.699932     -2.380725      2.457528
  H       1.836793     -1.589796      2.920855
  O       1.364443      2.439253      0.241067
  O       0.530847      0.928911      1.654243
  C       0.937777      2.112237      1.350114
  C       0.892428      3.105115      2.476136
  H       0.865643      4.121660      2.093238
  H       1.796318      2.999337      3.079284
  H       0.043160      2.930159      3.133067
  H       3.243214     -1.915115      0.668338
  H       1.573701     -2.884214     -1.236307
39
Coordinates from ORCA-job reaction4-IEIP_ts_guess_scan_4-7_orca E -1288.397927585035
  Ir      0.591009     -0.721861      0.459578
  C       0.033659     -2.805606      0.363616
  C       0.097181     -2.351146      1.729577
  C       2.195433     -2.134748      0.801469
  C       1.306467     -2.649048     -0.215542
  C       1.459131     -1.986588      1.991130
  N      -1.047771      0.158239     -0.522560
  C      -2.321435      0.470222      0.145024
  C      -3.131160      1.546317     -0.560629
  H      -3.961924      1.838560      0.080222
  H      -3.569803      1.203199     -1.499003
  H      -2.540930      2.442516     -0.754217
  C      -3.129104     -0.808641      0.331046
  H      -2.033298      0.845746      1.128332
  H      -4.044961     -0.586086      0.876522
  H      -3.410604     -1.242774     -0.629218
  H      -2.584929     -1.557018      0.905111
  C      -0.852879      0.378255     -1.766239
  C       0.495276      0.175566     -2.242604
  H      -1.639618      0.739505     -2.422171
  C       1.587814      0.441201     -1.424998
  C       2.795832      0.056900     -2.076032
  S       0.932881     -0.480117     -3.754131
  C       2.594281     -0.449790     -3.321931
  H       1.533609      1.352169     -0.629285
  H       3.779000      0.203753     -1.652795
  H       3.336495     -0.785485     -4.030360
  H      -0.849319     -3.170039     -0.141487
  H      -0.701154     -2.381256      2.456252
  H       1.834049     -1.587655      2.922745
  O       1.371321      2.435914      0.242012
  O       0.529370      0.928977      1.653674
  C       0.939284      2.111017      1.349769
  C       0.889953      3.106165      2.473693
  H       0.865487      4.122026      2.088850
  H       1.791326      3.000829      3.080699
  H       0.037877      2.933026      3.127469
  H       3.243882     -1.911388      0.672067
  H       1.577642     -2.881664     -1.234917
39
Coordinates from ORCA-job reaction4-IEIP_ts_guess_scan_4-7_orca E -1288.397943991267
  Ir      0.589415     -0.721062      0.462800
  C       0.034521     -2.805025      0.365128
  C       0.094434     -2.351068      1.731333
  C       2.194674     -2.132051      0.807887
  C       1.308580     -2.647038     -0.211214
  C       1.455286     -1.984978      1.995927
  N      -1.047434      0.156681     -0.520867
  C      -2.321705      0.467479      0.146149
  C      -3.129801      1.546159     -0.557504
  H      -3.960812      1.837599      0.083399
  H      -3.568023      1.205858     -1.497094
  H      -2.538467      2.442215     -0.748376
  C      -3.130601     -0.811261      0.327768
  H      -2.034548      0.840198      1.130772
  H      -4.047048     -0.589431      0.872539
  H      -3.411072     -1.242697     -0.634013
  H      -2.587805     -1.561608      0.900625
  C      -0.852635      0.377785     -1.764472
  C       0.494709      0.174884     -2.243680
  H      -1.640408      0.738392     -2.419534
  C       1.589143      0.433058     -1.425720
  C       2.796062      0.053414     -2.081429
  S       0.929823     -0.471622     -3.759717
  C       2.592330     -0.440862     -3.331995
  H       1.536587      1.341070     -0.625474
  H       3.779923      0.195953     -1.658419
  H       3.333254     -0.769900     -4.044895
  H      -0.846892     -3.170183     -0.142204
  H      -0.705607     -2.381941      2.456077
  H       1.827618     -1.585735      2.928456
  O       1.385582      2.426960      0.245181
  O       0.526603      0.929891      1.655526
  C       0.943387      2.108878      1.351005
  C       0.890650      3.108842      2.470624
  H       0.872924      4.123248      2.081632
  H       1.787614      3.002260      3.083938
  H       0.033602      2.941797      3.119463
  H       3.243253     -1.907779      0.681138
  H       1.582254     -2.879193     -1.230024
39
Coordinates from ORCA-job reaction4-IEIP_ts_guess_scan_4-7_orca E -1288.397956078145
  Ir      0.590226     -0.722222      0.464928
  C       0.033967     -2.805818      0.367645
  C       0.091424     -2.351246      1.733697
  C       2.193862     -2.134235      0.814334
  C       1.309378     -2.649234     -0.206210
  C       1.451943     -1.985813      2.000714
  N      -1.046305      0.155539     -0.520469
  C      -2.321174      0.464203      0.146704
  C      -3.127920      1.546771     -0.552671
  H      -3.958967      1.836208      0.089099
  H      -3.566067      1.211034     -1.493919
  H      -2.535564      2.443017     -0.739377
  C      -3.131161     -0.814790      0.321557
  H      -2.034959      0.832235      1.133332
  H      -4.048109     -0.594808      0.866235
  H      -3.410745     -1.241668     -0.642512
  H      -2.589550     -1.568175      0.891574
  C      -0.852759      0.377627     -1.764275
  C       0.493633      0.176753     -2.245709
  H      -1.642026      0.736987     -2.418201
  C       1.588019      0.429486     -1.426087
  C       2.794967      0.052798     -2.082903
  S       0.929018     -0.460919     -3.765211
  C       2.591230     -0.433949     -3.336583
  H       1.535543      1.338588     -0.625867
  H       3.778727      0.191850     -1.658565
  H       3.332169     -0.759273     -4.051160
  H      -0.846602     -3.170667     -0.141403
  H      -0.710188     -2.380935      2.456747
  H       1.822649     -1.586181      2.933736
  O       1.384195      2.426879      0.241725
  O       0.529729      0.931316      1.656522
  C       0.944261      2.110115      1.349026
  C       0.893644      3.112249      2.466773
  H       0.872797      4.125855      2.075889
  H       1.793010      3.008411      3.077031
  H       0.039213      2.944917      3.118975
  H       3.242993     -1.911275      0.689906
  H       1.584868     -2.882440     -1.224283
39
Coordinates from ORCA-job reaction4-IEIP_ts_guess_scan_4-7_orca E -1288.397968156018
  Ir      0.591814     -0.724240      0.468922
  C       0.035285     -2.807563      0.370046
  C       0.086033     -2.352679      1.736201
  C       2.193387     -2.136592      0.827255
  C       1.313674     -2.651707     -0.197410
  C       1.445225     -1.987325      2.009719
  N      -1.043371      0.152863     -0.518981
  C      -2.318453      0.459441      0.149282
  C      -3.121233      1.550620     -0.541449
  H      -3.951291      1.837924      0.102566
  H      -3.560581      1.224131     -1.485345
  H      -2.525346      2.445950     -0.720953
  C      -3.132357     -0.818730      0.311769
  H      -2.032818      0.818098      1.139526
  H      -4.049612     -0.600958      0.856853
  H      -3.411466     -1.236520     -0.656407
  H      -2.593741     -1.578615      0.875928
  C      -0.852801      0.375392     -1.763381
  C       0.491594      0.177954     -2.249079
  H      -1.644968      0.732611     -2.414972
  C       1.586446      0.421484     -1.427386
  C       2.793005      0.050997     -2.087333
  S       0.926534     -0.444367     -3.774792
  C       2.588362     -0.423443     -3.345920
  H       1.534272      1.332856     -0.627376
  H       3.776959      0.184905     -1.661871
  H       3.328877     -0.742025     -4.063968
  H      -0.842598     -3.172512     -0.143533
  H      -0.719373     -2.381446      2.455057
  H       1.811344     -1.587227      2.944367
  O       1.380499      2.424946      0.235000
  O       0.533757      0.931741      1.657488
  C       0.945169      2.110004      1.345015
  C       0.893873      3.116894      2.458335
  H       0.865554      4.128603      2.063053
  H       1.796778      3.020786      3.064606
  H       0.043500      2.947556      3.115272
  H       3.243447     -1.914932      0.708611
  H       1.593991     -2.885687     -1.213974
39
Coordinates from ORCA-job reaction4-IEIP_ts_guess_scan_4-7_orca E -1288.397968837314
  Ir      0.591718     -0.723998      0.470086
  C       0.036845     -2.807830      0.370099
  C       0.084131     -2.352669      1.736337
  C       2.193509     -2.135244      0.832323
  C       1.316426     -2.651107     -0.194260
  C       1.442441     -1.986424      2.013001
  N      -1.043273      0.151989     -0.518424
  C      -2.318668      0.457191      0.150033
  C      -3.119870      1.551654     -0.537368
  H      -3.949812      1.837905      0.107267
  H      -3.559254      1.228764     -1.482468
  H      -2.522627      2.446677     -0.713780
  C      -3.133602     -0.821049      0.306968
  H      -2.033678      0.811885      1.141873
  H      -4.051117     -0.604899      0.852279
  H      -3.412269     -1.234897     -0.663027
  H      -2.595766     -1.583515      0.868384
  C      -0.853538      0.374634     -1.762989
  C       0.490384      0.178373     -2.249788
  H      -1.646661      0.730940     -2.413939
  C       1.585708      0.419485     -1.427910
  C       2.791820      0.049672     -2.088704
  S       0.924867     -0.440130     -3.777220
  C       2.586541     -0.421562     -3.348494
  H       1.534233      1.331141     -0.627661
  H       3.775996      0.181847     -1.663218
  H       3.326708     -0.738976     -4.067427
  H      -0.839463     -3.173673     -0.145517
  H      -0.722967     -2.381805      2.453282
  H       1.806105     -1.585956      2.948452
  O       1.380878      2.424462      0.233230
  O       0.533518      0.933072      1.657284
  C       0.943952      2.111230      1.343122
  C       0.896492      3.118420      2.456327
  H       0.868063      4.130014      2.060761
  H       1.800944      3.021791      3.060224
  H       0.047701      2.949970      3.115504
  H       3.243774     -1.913203      0.716272
  H       1.599181     -2.884991     -1.210173
39
Coordinates from ORCA-job reaction4-IEIP_ts_guess_scan_4-7_orca E -1288.397970119934
  Ir      0.591772     -0.723673      0.470356
  C       0.038362     -2.808098      0.369463
  C       0.083232     -2.352613      1.735763
  C       2.193936     -2.134000      0.835191
  C       1.318707     -2.650530     -0.192678
  C       1.440907     -1.985698      2.014658
  N      -1.043557      0.151740     -0.517798
  C      -2.319130      0.455761      0.150920
  C      -3.119032      1.552863     -0.533787
  H      -3.948939      1.838243      0.111273
  H      -3.558315      1.232847     -1.479899
  H      -2.520673      2.447631     -0.707649
  C      -3.134728     -0.822641      0.303274
  H      -2.034609      0.807130      1.144045
  H      -4.052310     -0.608096      0.849117
  H      -3.413290     -1.233062     -0.668207
  H      -2.597190     -1.587270      0.862054
  C      -0.854312      0.374527     -1.762451
  C       0.489441      0.178549     -2.249716
  H      -1.647923      0.730463     -2.413032
  C       1.585396      0.418957     -1.428345
  C       2.790901      0.048476     -2.089760
  S       0.923030     -0.439851     -3.777579
  C       2.584754     -0.422180     -3.349660
  H       1.534950      1.330314     -0.627735
  H       3.775419      0.180064     -1.664877
  H       3.324439     -0.739837     -4.068986
  H      -0.836793     -3.174816     -0.147481
  H      -0.724990     -2.382198      2.451430
  H       1.802821     -1.584988      2.950686
  O       1.384662      2.424101      0.233103
  O       0.533670      0.934345      1.656665
  C       0.946333      2.111859      1.342633
  C       0.897218      3.119829      2.455057
  H       0.868727      4.131099      2.058640
  H       1.801168      3.024162      3.059852
  H       0.047859      2.951483      3.113513
  H       3.244293     -1.911519      0.720862
  H       1.603163     -2.884184     -1.208178
