39
Generated by autodE on: 2023-08-14. E = -1288.391561 Ha
Ir    0.56984  -0.75120   0.54164
C     0.02157  -2.83002   0.41410
C     0.00313  -2.36890   1.78001
C     2.15622  -2.16066   0.98308
C     1.32769  -2.67339  -0.08480
C     1.34863  -2.00932   2.12446
N    -1.03013   0.12078  -0.49537
C    -2.32133   0.40410   0.15726
C    -3.09702   1.53937  -0.49390
H    -3.93493   1.80776   0.14816
H    -3.52320   1.26438  -1.45969
H    -2.48479   2.43240  -0.62117
C    -3.15236  -0.87143   0.23050
H    -2.06179   0.70881   1.17243
H    -4.08003  -0.67627   0.76673
H    -3.41331  -1.23105  -0.76577
H    -2.63347  -1.66891   0.76016
C    -0.84004   0.35112  -1.74097
C     0.49310   0.19781  -2.26154
H    -1.65023   0.68973  -2.38114
C     1.61416   0.42196  -1.47631
C     2.79679   0.11439  -2.20108
S     0.87882  -0.30452  -3.85172
C     2.55076  -0.27729  -3.48358
H     1.58230   1.33205  -0.57659
H     3.79573   0.23458  -1.80753
H     3.27075  -0.53322  -4.24628
H    -0.82768  -3.19812  -0.14328
H    -0.83798  -2.39694   2.45705
H     1.66619  -1.60932   3.07685
O     1.49887   2.35063   0.22687
O     0.54005   0.94831   1.67247
C     1.00646   2.09196   1.33514
C     0.96519   3.15002   2.39763
H     0.91545   4.14128   1.95486
H     1.88504   3.09667   2.98343
H     0.13216   3.00076   3.08026
H     3.21081  -1.93897   0.91642
H     1.65797  -2.90017  -1.08803
