39
Coordinates from ORCA-job reaction4-IEIP_ts_guess_scan_3-8_orca E -1288.396381629851
  Ir      0.580636     -0.724767      0.465867
  C       0.027660     -2.804861      0.345567
  C       0.109226     -2.361544      1.715876
  C       2.194264     -2.136473      0.764612
  C       1.292095     -2.639160     -0.247328
  C       1.476604     -2.003644      1.966101
  N      -1.049870      0.163084     -0.516785
  C      -2.324111      0.486268      0.145251
  C      -3.134462      1.548815     -0.579856
  H      -3.964741      1.852481      0.056289
  H      -3.573719      1.188470     -1.511479
  H      -2.544719      2.441534     -0.790392
  C      -3.130788     -0.789285      0.355288
  H      -2.036221      0.880527      1.121314
  H      -4.047848     -0.556565      0.894439
  H      -3.410402     -1.242751     -0.596596
  H      -2.587918     -1.525916      0.945845
  C      -0.845680      0.368955     -1.759294
  C       0.506587      0.156261     -2.220587
  H      -1.626725      0.721404     -2.427094
  C       1.600519      0.488210     -1.430573
  C       2.810114      0.089418     -2.067681
  S       0.946419     -0.573179     -3.700997
  C       2.609426     -0.486081     -3.284049
  H       1.515440      1.373905     -0.622697
  H       3.793320      0.274175     -1.659609
  H       3.353326     -0.846435     -3.978636
  H      -0.862059     -3.163949     -0.151531
  H      -0.679995     -2.398856      2.452405
  H       1.864273     -1.616381      2.897415
  O       1.332092      2.441707      0.241239
  O       0.540804      0.917423      1.665010
  C       0.925845      2.108445      1.354307
  C       0.880399      3.098236      2.483533
  H       0.834151      4.114755      2.102439
  H       1.793561      3.004844      3.074742
  H       0.042531      2.910593      3.151624
  H       3.239275     -1.905206      0.620689
  H       1.550062     -2.855269     -1.273930
39
Coordinates from ORCA-job reaction4-IEIP_ts_guess_scan_3-8_orca E -1288.394148642636
  Ir      0.585231     -0.707404      0.454262
  C       0.053349     -2.792819      0.307639
  C       0.122592     -2.366294      1.683643
  C       2.210561     -2.107801      0.747317
  C       1.319441     -2.607557     -0.275663
  C       1.484341     -1.996357      1.945867
  N      -1.057559      0.173632     -0.521770
  C      -2.327586      0.501947      0.144539
  C      -3.145330      1.551872     -0.590498
  H      -3.972897      1.862011      0.046048
  H      -3.588601      1.177079     -1.514513
  H      -2.559489      2.443271     -0.816963
  C      -3.128493     -0.773213      0.377427
  H      -2.034107      0.910251      1.113141
  H      -4.042366     -0.536229      0.920100
  H      -3.413466     -1.240263     -0.566247
  H      -2.578681     -1.500037      0.973765
  C      -0.862045      0.359682     -1.769564
  C       0.489936      0.139355     -2.227609
  H      -1.647203      0.694979     -2.441325
  C       1.579297      0.514824     -1.449931
  C       2.790929      0.080355     -2.060851
  S       0.934850     -0.664466     -3.666881
  C       2.595328     -0.562240     -3.243761
  H       1.496313      1.478179     -0.722086
  H       3.772911      0.292458     -1.663363
  H       3.342341     -0.957916     -3.915290
  H      -0.829678     -3.155150     -0.198912
  H      -0.670111     -2.421587      2.415202
  H       1.862545     -1.616477      2.884072
  O       1.431790      2.406691      0.304514
  O       0.514448      0.915280      1.677290
  C       0.949213      2.093617      1.393537
  C       0.870047      3.087033      2.517533
  H       0.877663      4.103697      2.133979
  H       1.744355      2.966516      3.160291
  H      -0.010327      2.927088      3.136208
  H       3.254143     -1.865176      0.612575
  H       1.585686     -2.809641     -1.302981
39
Coordinates from ORCA-job reaction4-IEIP_ts_guess_scan_3-8_orca E -1288.396458431293
  Ir      0.584846     -0.724245      0.467961
  C       0.035592     -2.806954      0.342962
  C       0.109483     -2.367990      1.714774
  C       2.198795     -2.134776      0.773656
  C       1.302792     -2.637403     -0.243580
  C       1.474271     -2.006211      1.971819
  N      -1.047567      0.164908     -0.515013
  C      -2.319988      0.489586      0.147892
  C      -3.128786      1.552291     -0.578626
  H      -3.959261      1.857521      0.056497
  H      -3.567409      1.191272     -1.510325
  H      -2.537969      2.444186     -0.789727
  C      -3.127118     -0.785413      0.359048
  H      -2.030643      0.883810      1.123531
  H      -4.043184     -0.552118      0.899604
  H      -3.408419     -1.238663     -0.592426
  H      -2.583432     -1.522258      0.948703
  C      -0.844687      0.376600     -1.758711
  C       0.507002      0.164691     -2.227457
  H      -1.626805      0.735375     -2.421826
  C       1.605306      0.479163     -1.434256
  C       2.809532      0.071979     -2.078547
  S       0.937229     -0.561748     -3.711770
  C       2.601603     -0.493999     -3.297370
  H       1.540431      1.388158     -0.636017
  H       3.795562      0.247435     -1.673265
  H       3.340892     -0.855514     -3.996142
  H      -0.850808     -3.167184     -0.159182
  H      -0.682751     -2.410160      2.447681
  H       1.856398     -1.620346      2.905981
  O       1.311398      2.434021      0.243709
  O       0.529231      0.915179      1.673310
  C       0.912343      2.104874      1.361474
  C       0.866542      3.099446      2.486195
  H       0.815262      4.114221      2.100991
  H       1.781760      3.012111      3.075078
  H       0.031305      2.911266      3.157258
  H       3.244197     -1.902029      0.635897
  H       1.566426     -2.851891     -1.269044
39
Coordinates from ORCA-job reaction4-IEIP_ts_guess_scan_3-8_orca E -1288.394391425566
  Ir      0.571265     -0.733463      0.474034
  C       0.003256     -2.813086      0.396344
  C       0.081948     -2.344260      1.757623
  C       2.172565     -2.150661      0.810743
  C       1.271380     -2.668524     -0.194089
  C       1.449819     -1.988808      2.005847
  N      -1.058950      0.141600     -0.529369
  C      -2.334971      0.462461      0.129698
  C      -3.150043      1.517156     -0.601572
  H      -3.982974      1.819518      0.031719
  H      -3.585819      1.149704     -1.532057
  H      -2.564811      2.412010     -0.815650
  C      -3.134981     -0.816331      0.345472
  H      -2.049738      0.862561      1.104090
  H      -4.053032     -0.586201      0.884050
  H      -3.412488     -1.275275     -0.604385
  H      -2.587539     -1.547409      0.938726
  C      -0.859586      0.349752     -1.773839
  C       0.494115      0.167493     -2.245582
  H      -1.645033      0.707670     -2.433266
  C       1.582261      0.466184     -1.435598
  C       2.798820      0.138907     -2.101218
  S       0.943070     -0.471619     -3.763649
  C       2.606518     -0.362217     -3.351195
  H       1.476661      1.302302     -0.571458
  H       3.779162      0.318492     -1.683970
  H       3.355457     -0.660272     -4.069474
  H      -0.886679     -3.176423     -0.097266
  H      -0.710229     -2.362788      2.491570
  H       1.835791     -1.585302      2.930945
  O       1.559712      2.383533      0.291240
  O       0.532568      0.934885      1.646453
  C       1.018140      2.094421      1.360014
  C       0.933930      3.101893      2.470683
  H       0.993180      4.113436      2.078250
  H       1.778645      2.956510      3.146998
  H       0.025708      2.980517      3.057099
  H       3.219981     -1.930501      0.667311
  H       1.532291     -2.908673     -1.214532
39
Coordinates from ORCA-job reaction4-IEIP_ts_guess_scan_3-8_orca E -1288.396550918112
  Ir      0.578028     -0.720744      0.471126
  C       0.026015     -2.803509      0.363023
  C       0.097877     -2.353802      1.731147
  C       2.189181     -2.130678      0.791782
  C       1.294487     -2.640533     -0.222791
  C       1.462316     -1.991187      1.987410
  N      -1.051673      0.160776     -0.518164
  C      -2.329126      0.474623      0.141319
  C      -3.143145      1.535540     -0.582113
  H      -3.977649      1.831703      0.052030
  H      -3.576612      1.176317     -1.516890
  H      -2.558017      2.432661     -0.786799
  C      -3.129305     -0.806267      0.343755
  H      -2.045978      0.865941      1.119934
  H      -4.048532     -0.581286      0.882516
  H      -3.404761     -1.256575     -0.610824
  H      -2.582936     -1.542579      0.931444
  C      -0.846852      0.379996     -1.760286
  C       0.503781      0.174296     -2.233922
  H      -1.630302      0.739258     -2.421351
  C       1.604569      0.468355     -1.436810
  C       2.806845      0.076106     -2.093171
  S       0.929993     -0.511901     -3.738017
  C       2.595436     -0.457896     -3.325767
  H       1.545749      1.358813     -0.617021
  H       3.793885      0.238331     -1.684769
  H       3.332583     -0.803207     -4.034897
  H      -0.859955     -3.166597     -0.137805
  H      -0.695698     -2.389076      2.462931
  H       1.843142     -1.597931      2.919023
  O       1.412148      2.418010      0.266414
  O       0.520924      0.928658      1.664463
  C       0.953725      2.104576      1.366203
  C       0.894398      3.103389      2.486315
  H       0.891929      4.118170      2.097817
  H       1.781390      2.988096      3.112384
  H       0.026610      2.944155      3.122683
  H       3.235259     -1.900744      0.654303
  H       1.559644     -2.864069     -1.245885
39
Coordinates from ORCA-job reaction4-IEIP_ts_guess_scan_3-8_orca E -1288.396576190029
  Ir      0.584291     -0.727362      0.470092
  C       0.022658     -2.808002      0.365498
  C       0.095117     -2.356862      1.732913
  C       2.188435     -2.144546      0.795240
  C       1.292347     -2.651741     -0.219458
  C       1.460792     -1.999599      1.989764
  N      -1.047043      0.159979     -0.520229
  C      -2.323023      0.476701      0.141066
  C      -3.135633      1.540121     -0.580274
  H      -3.968641      1.837486      0.055270
  H      -3.571186      1.182800     -1.514796
  H      -2.548912      2.436219     -0.784807
  C      -3.126654     -0.802047      0.343613
  H      -2.037740      0.866780      1.119600
  H      -4.044739     -0.574670      0.883317
  H      -3.404260     -1.251091     -0.610927
  H      -2.581897     -1.540147      0.930389
  C      -0.845851      0.374884     -1.763783
  C       0.504061      0.172476     -2.236304
  H      -1.630545      0.731879     -2.424615
  C       1.599651      0.473451     -1.436489
  C       2.805993      0.086580     -2.088073
  S       0.936488     -0.523506     -3.733727
  C       2.600938     -0.451526     -3.320322
  H       1.534352      1.378579     -0.631025
  H       3.790961      0.258145     -1.678467
  H       3.342070     -0.792525     -4.027366
  H      -0.864384     -3.167852     -0.135756
  H      -0.699285     -2.387762      2.463992
  H       1.842406     -1.606584      2.921153
  O       1.356344      2.436423      0.246177
  O       0.532395      0.924031      1.663876
  C       0.933355      2.108893      1.356545
  C       0.894944      3.100631      2.483614
  H       0.863553      4.117352      2.101516
  H       1.803685      2.996217      3.079711
  H       0.051087      2.923781      3.146947
  H       3.235826     -1.920124      0.658749
  H       1.557412     -2.878276     -1.241882
39
Coordinates from ORCA-job reaction4-IEIP_ts_guess_scan_3-8_orca E -1288.396601789992
  Ir      0.583963     -0.726818      0.470906
  C       0.024628     -2.807533      0.364912
  C       0.095130     -2.357107      1.732549
  C       2.189268     -2.142103      0.797005
  C       1.294820     -2.649702     -0.218813
  C       1.460043     -1.998400      1.990850
  N      -1.046189      0.158487     -0.519006
  C      -2.321685      0.475708      0.143020
  C      -3.132848      1.541439     -0.576522
  H      -3.965148      1.839203      0.059767
  H      -3.569328      1.186202     -1.511400
  H      -2.544748      2.436883     -0.779961
  C      -3.127429     -0.802018      0.343892
  H      -2.035728      0.864048      1.122051
  H      -4.045219     -0.573814      0.883747
  H      -3.405635     -1.249416     -0.611250
  H      -2.584034     -1.541764      0.929825
  C      -0.845711      0.374246     -1.762490
  C       0.503708      0.172660     -2.237469
  H      -1.631146      0.732045     -2.422040
  C       1.600688      0.469363     -1.437858
  C       2.806205      0.082634     -2.091062
  S       0.934979     -0.509010     -3.741610
  C       2.599281     -0.451469     -3.324804
  H       1.536519      1.371117     -0.627966
  H       3.791592      0.247368     -1.679705
  H       3.339186     -0.794248     -4.032291
  H      -0.861501     -3.167967     -0.137534
  H      -0.700076     -2.388933      2.462691
  H       1.840212     -1.605229      2.922765
  O       1.367654      2.430811      0.248812
  O       0.530956      0.923160      1.663631
  C       0.939244      2.105578      1.357907
  C       0.888866      3.101764      2.480664
  H       0.859550      4.117001      2.094473
  H       1.792324      3.000836      3.085322
  H       0.039244      2.926271      3.136986
  H       3.236610     -1.916636      0.661834
  H       1.561125     -2.875469     -1.241085
39
Coordinates from ORCA-job reaction4-IEIP_ts_guess_scan_3-8_orca E -1288.396613857963
  Ir      0.582317     -0.725981      0.473865
  C       0.025634     -2.806960      0.366242
  C       0.092686     -2.357004      1.734128
  C       2.188669     -2.139236      0.802935
  C       1.296979     -2.647590     -0.214871
  C       1.456537     -1.996650      1.995277
  N      -1.046073      0.156923     -0.517610
  C      -2.322146      0.473327      0.143740
  C      -3.131754      1.541246     -0.574382
  H      -3.964290      1.838518      0.061836
  H      -3.567847      1.188314     -1.510309
  H      -2.542605      2.436507     -0.775588
  C      -3.129102     -0.804209      0.341027
  H      -2.037083      0.859470      1.123869
  H      -4.047430     -0.576399      0.880123
  H      -3.406364     -1.249491     -0.615378
  H      -2.587056     -1.545597      0.926183
  C      -0.845557      0.373307     -1.761060
  C       0.503222      0.171372     -2.238376
  H      -1.631862      0.730255     -2.420054
  C       1.601861      0.462211     -1.438382
  C       2.806500      0.080171     -2.095910
  S       0.932413     -0.502871     -3.746313
  C       2.597691     -0.443564     -3.333804
  H       1.538815      1.361410     -0.624622
  H       3.792482      0.241917     -1.684878
  H       3.336483     -0.780203     -4.045399
  H      -0.858991     -3.168190     -0.138299
  H      -0.704108     -2.389685      2.462477
  H       1.834227     -1.603120      2.928057
  O       1.378039      2.423085      0.251277
  O       0.527655      0.923923      1.665430
  C       0.940486      2.104027      1.358678
  C       0.890591      3.103610      2.478580
  H       0.867550      4.117905      2.089549
  H       1.791330      3.000125      3.086900
  H       0.037717      2.933907      3.132190
  H       3.236108     -1.912742      0.670244
  H       1.565650     -2.872849     -1.236632
39
Coordinates from ORCA-job reaction4-IEIP_ts_guess_scan_3-8_orca E -1288.396624609672
  Ir      0.583160     -0.727006      0.475396
  C       0.025186     -2.807626      0.368234
  C       0.090598     -2.357181      1.735993
  C       2.188189     -2.141257      0.807617
  C       1.297520     -2.649528     -0.211178
  C       1.454284     -1.997482      1.998789
  N      -1.045191      0.156022     -0.517403
  C      -2.321709      0.470805      0.144113
  C      -3.130186      1.541954     -0.570592
  H      -3.962725      1.837662      0.066357
  H      -3.566270      1.192758     -1.507913
  H      -2.540172      2.437390     -0.768420
  C      -3.129603     -0.806955      0.335980
  H      -2.037355      0.853207      1.125887
  H      -4.048295     -0.580555      0.875046
  H      -3.406212     -1.248572     -0.622310
  H      -2.588545     -1.550866      0.918875
  C      -0.845760      0.373038     -1.761061
  C       0.502285      0.172834     -2.240098
  H      -1.633270      0.728899     -2.419187
  C       1.600754      0.459968     -1.438645
  C       2.805552      0.079927     -2.096594
  S       0.931985     -0.494567     -3.750755
  C       2.596935     -0.438813     -3.336755
  H       1.537404      1.360237     -0.625194
  H       3.791382      0.239047     -1.684226
  H       3.335839     -0.773159     -4.049306
  H      -0.858917     -3.168499     -0.137504
  H      -0.707306     -2.388840      2.463167
  H       1.830900     -1.603654      2.931887
  O       1.375602      2.423751      0.248284
  O       0.530573      0.925035      1.666292
  C       0.941064      2.105175      1.357179
  C       0.892932      3.106321      2.475733
  H       0.866391      4.120003      2.085356
  H       1.796088      3.005592      3.080924
  H       0.042768      2.935713      3.132629
  H       3.236080     -1.915929      0.676562
  H       1.567412     -2.875658     -1.232418
39
Coordinates from ORCA-job reaction4-IEIP_ts_guess_scan_3-8_orca E -1288.396637921986
  Ir      0.584561     -0.728723      0.479129
  C       0.026205     -2.808982      0.370658
  C       0.086019     -2.358342      1.738536
  C       2.187826     -2.143398      0.818871
  C       1.301093     -2.651646     -0.203439
  C       1.448646     -1.998808      2.006774
  N      -1.042655      0.153612     -0.516100
  C      -2.319477      0.466508      0.146193
  C      -3.124298      1.545518     -0.560983
  H      -3.956043      1.839340      0.077891
  H      -3.561383      1.204716     -1.500892
  H      -2.531071      2.440231     -0.752181
  C      -3.130842     -0.810708      0.326787
  H      -2.035811      0.840578      1.131367
  H      -4.049894     -0.586298      0.866099
  H      -3.406851     -1.244208     -0.635369
  H      -2.592528     -1.560545      0.904593
  C      -0.845926      0.370656     -1.760374
  C       0.500334      0.173555     -2.243246
  H      -1.636084      0.724231     -2.416558
  C       1.599151      0.453113     -1.439680
  C       2.803719      0.078621     -2.100216
  S       0.929805     -0.481071     -3.759256
  C       2.594485     -0.429478     -3.344975
  H       1.535646      1.355495     -0.626596
  H       3.789658      0.233656     -1.686629
  H       3.333081     -0.757738     -4.060672
  H      -0.855707     -3.169785     -0.138941
  H      -0.715104     -2.389123      2.462196
  H       1.821438     -1.604581      2.941251
  O       1.371309      2.422309      0.242372
  O       0.534257      0.925497      1.667584
  C       0.941598      2.105220      1.353926
  C       0.893821      3.110465      2.468707
  H       0.860017      4.122476      2.074597
  H       1.800751      3.016743      3.069354
  H       0.048042      2.937865      3.130693
  H       3.236571     -1.919323      0.692713
  H       1.575010     -2.878457     -1.223442
39
Coordinates from ORCA-job reaction4-IEIP_ts_guess_scan_3-8_orca E -1288.396640016683
  Ir      0.584520     -0.728452      0.480787
  C       0.027868     -2.809183      0.371207
  C       0.083986     -2.358270      1.739182
  C       2.188012     -2.141975      0.824751
  C       1.304062     -2.650998     -0.199630
  C       1.445695     -1.997782      2.010757
  N      -1.042418      0.152427     -0.515379
  C      -2.319682      0.463559      0.147106
  C      -3.122523      1.546788     -0.555917
  H      -3.954105      1.839285      0.083783
  H      -3.559728      1.210620     -1.497421
  H      -2.527596      2.441189     -0.743160
  C      -3.132392     -0.813808      0.320689
  H      -2.036875      0.832705      1.134365
  H      -4.051837     -0.591322      0.860148
  H      -3.407708     -1.242444     -0.643842
  H      -2.595198     -1.566920      0.895269
  C      -0.846785      0.369775     -1.759856
  C       0.498821      0.174438     -2.244407
  H      -1.638204      0.722292     -2.415111
  C       1.598253      0.450372     -1.440327
  C       2.802265      0.076779     -2.101925
  S       0.927780     -0.473170     -3.763543
  C       2.592177     -0.427110     -3.348382
  H       1.535642      1.352656     -0.626410
  H       3.788458      0.228723     -1.687813
  H       3.330261     -0.754313     -4.065098
  H      -0.852386     -3.170876     -0.140611
  H      -0.718983     -2.389345      2.460782
  H       1.815879     -1.603125      2.946094
  O       1.373274      2.421269      0.240715
  O       0.534292      0.927106      1.667622
  C       0.941624      2.106321      1.352185
  C       0.896457      3.112691      2.466032
  H       0.862355      4.124283      2.070877
  H       1.804594      3.019291      3.064918
  H       0.051924      2.941094      3.129834
  H       3.237021     -1.917587      0.701407
  H       1.580570     -2.877795     -1.218937
39
Coordinates from ORCA-job reaction4-IEIP_ts_guess_scan_3-8_orca E -1288.396642276782
  Ir      0.584547     -0.728231      0.481668
  C       0.029248     -2.809503      0.371138
  C       0.082746     -2.358294      1.739185
  C       2.188278     -2.140918      0.828512
  C       1.306312     -2.650547     -0.197315
  C       1.443806     -1.997175      2.013200
  N      -1.042439      0.151922     -0.514579
  C      -2.319977      0.461817      0.148066
  C      -3.121177      1.548230     -0.551921
  H      -3.952658      1.839871      0.088299
  H      -3.558386      1.215470     -1.494620
  H      -2.524840      2.442290     -0.736229
  C      -3.133667     -0.815672      0.316336
  H      -2.037779      0.827169      1.136885
  H      -4.053297     -0.594796      0.856156
  H      -3.408663     -1.240478     -0.649979
  H      -2.597094     -1.571312      0.888185
  C      -0.847417      0.369308     -1.759199
  C       0.497863      0.174424     -2.244513
  H      -1.639504      0.721231     -2.413993
  C       1.598000      0.448760     -1.440718
  C       2.801359      0.075582     -2.103562
  S       0.925724     -0.472252     -3.764449
  C       2.590292     -0.426139     -3.350784
  H       1.536568      1.350890     -0.626388
  H       3.787942      0.226923     -1.690155
  H       3.327838     -0.752254     -4.068554
  H      -0.849792     -3.172000     -0.142184
  H      -0.721495     -2.389720      2.459357
  H       1.812122     -1.602284      2.949177
  O       1.376922      2.420260      0.240310
  O       0.534368      0.928296      1.667345
  C       0.943932      2.106719      1.351596
  C       0.897267      3.114326      2.464253
  H       0.862855      4.125425      2.067835
  H       1.805093      3.022262      3.063811
  H       0.052370      2.942985      3.127638
  H       3.237436     -1.916192      0.707088
  H       1.584667     -2.877201     -1.216158
