39
Coordinates from ORCA-job reaction4-IEIP_ts_guess_scan_13-8_orca E -1288.399590603736
  Ir      0.620199     -0.725497      0.398274
  C       0.159113     -2.844217      0.315305
  C      -0.070684     -2.400772      1.666261
  C       2.161202     -2.055427      1.157913
  C       1.526745     -2.650718      0.015722
  C       1.165650     -1.935353      2.170073
  N      -1.074573      0.122155     -0.515032
  C      -2.342116      0.315518      0.204440
  C      -3.140352      1.521046     -0.270995
  H      -3.967971      1.688127      0.416518
  H      -3.580470      1.376032     -1.258539
  H      -2.537588      2.429410     -0.284689
  C      -3.165825     -0.965310      0.125210
  H      -2.054994      0.486270      1.243116
  H      -4.067134     -0.865160      0.728608
  H      -3.472338     -1.172064     -0.900964
  H      -2.616534     -1.829077      0.496081
  C      -0.928809      0.482329     -1.732211
  C       0.387634      0.298721     -2.250203
  H      -1.733937      0.921755     -2.311942
  C       1.405494      0.039144     -1.325646
  C       2.627269     -0.208664     -2.031567
  S       0.899135      0.264861     -3.865014
  C       2.498385     -0.115307     -3.383024
  H       1.603997      1.128747     -0.633569
  H       3.576535     -0.387193     -1.547172
  H       3.269551     -0.228216     -4.129904
  H      -0.573308     -3.284652     -0.345309
  H      -0.998101     -2.457336      2.215256
  H       1.316621     -1.491013      3.143779
  O       1.726347      2.312860      0.075734
  O       0.582626      1.031785      1.490149
  C       1.139739      2.124940      1.159208
  C       1.100164      3.239759      2.163141
  H       0.985031      4.199670      1.665047
  H       2.050727      3.266132      2.698661
  H       0.305053      3.096878      2.889457
  H       3.210090     -1.827163      1.266951
  H       2.006798     -2.903810     -0.918381
39
Coordinates from ORCA-job reaction4-IEIP_ts_guess_scan_13-8_orca E -1288.399603165600
  Ir      0.619214     -0.718098      0.393544
  C       0.164617     -2.840572      0.312489
  C      -0.066149     -2.399907      1.664226
  C       2.163693     -2.045500      1.155932
  C       1.531739     -2.643043      0.013555
  C       1.167461     -1.929908      2.167657
  N      -1.080176      0.122579     -0.516436
  C      -2.346664      0.316935      0.204784
  C      -3.146884      1.519628     -0.274449
  H      -3.974052      1.688287      0.413206
  H      -3.587660      1.370260     -1.261058
  H      -2.545368      2.428769     -0.292240
  C      -3.169100     -0.965043      0.131813
  H      -2.058355      0.492163      1.242421
  H      -4.069696     -0.863593      0.736071
  H      -3.476876     -1.176202     -0.893094
  H      -2.618343     -1.826754      0.505285
  C      -0.933813      0.478703     -1.739512
  C       0.384855      0.294873     -2.260534
  H      -1.740141      0.914332     -2.320343
  C       1.402434      0.040300     -1.334074
  C       2.624159     -0.212655     -2.039127
  S       0.897192      0.255239     -3.875216
  C       2.495596     -0.126164     -3.391014
  H       1.610113      1.152186     -0.662837
  H       3.573431     -0.389133     -1.553808
  H       3.266807     -0.244436     -4.136913
  H      -0.566123     -3.283614     -0.348271
  H      -0.993061     -2.460620      2.213533
  H       1.316797     -1.486044      3.141839
  O       1.784535      2.283018      0.118827
  O       0.566305      1.037124      1.493221
  C       1.153366      2.118535      1.180927
  C       1.098910      3.240152      2.176152
  H       1.022024      4.199062      1.668755
  H       2.029135      3.250729      2.746801
  H       0.274438      3.117769      2.872753
  H       3.211950     -1.814743      1.265982
  H       2.013062     -2.895424     -0.920107
39
Coordinates from ORCA-job reaction4-IEIP_ts_guess_scan_13-8_orca E -1288.398520815494
  Ir      0.628726     -0.724069      0.394545
  C       0.165765     -2.848796      0.306766
  C      -0.061124     -2.418896      1.662705
  C       2.167490     -2.065714      1.153010
  C       1.533320     -2.654803      0.007774
  C       1.172126     -1.954813      2.166071
  N      -1.068603      0.128404     -0.504170
  C      -2.333785      0.325783      0.218085
  C      -3.124339      1.537614     -0.254077
  H      -3.951935      1.707157      0.432826
  H      -3.563536      1.398500     -1.242902
  H      -2.516496      2.442687     -0.263902
  C      -3.165421     -0.949531      0.134710
  H      -2.045597      0.491448      1.257347
  H      -4.066037     -0.846154      0.738627
  H      -3.473552     -1.150900     -0.892067
  H      -2.621370     -1.817961      0.502409
  C      -0.913099      0.496470     -1.731709
  C       0.408883      0.306546     -2.259575
  H      -1.715984      0.942228     -2.309410
  C       1.420429      0.024013     -1.333704
  C       2.638122     -0.248495     -2.040460
  S       0.923527      0.273278     -3.874193
  C       2.513196     -0.146606     -3.391432
  H       1.675110      1.157141     -0.679863
  H       3.583530     -0.447004     -1.555768
  H       3.283100     -0.274368     -4.136951
  H      -0.566868     -3.286125     -0.355747
  H      -0.987005     -2.481595      2.213323
  H       1.323906     -1.518730      3.143383
  O       1.585807      2.334552      0.045349
  O       0.568439      1.027218      1.515096
  C       1.074585      2.136025      1.165619
  C       1.055547      3.251325      2.168045
  H       0.881937      4.205729      1.676184
  H       2.033193      3.309412      2.649642
  H       0.307155      3.084477      2.937296
  H       3.216886     -1.841039      1.264985
  H       2.013342     -2.905217     -0.927126
39
Coordinates from ORCA-job reaction4-IEIP_ts_guess_scan_13-8_orca E -1288.399917723710
  Ir      0.619526     -0.726181      0.395911
  C       0.154521     -2.848174      0.322169
  C      -0.069395     -2.407761      1.675094
  C       2.159238     -2.061064      1.158225
  C       1.521646     -2.657038      0.018363
  C       1.166383     -1.941457      2.173101
  N      -1.077461      0.120155     -0.511300
  C      -2.344403      0.314410      0.207752
  C      -3.140077      1.521054     -0.269156
  H      -3.969383      1.688905      0.416146
  H      -3.577372      1.376787     -1.258072
  H      -2.536338      2.428808     -0.281024
  C      -3.169609     -0.965298      0.127253
  H      -2.058078      0.484548      1.246699
  H      -4.071411     -0.864351      0.729796
  H      -3.475414     -1.171334     -0.899273
  H      -2.621639     -1.829829      0.498362
  C      -0.927501      0.482629     -1.734717
  C       0.392745      0.301506     -2.257983
  H      -1.732727      0.923631     -2.312864
  C       1.405969      0.028754     -1.331759
  C       2.631434     -0.214133     -2.035078
  S       0.910532      0.278891     -3.871302
  C       2.508463     -0.105303     -3.385962
  H       1.619539      1.146076     -0.654392
  H       3.578962     -0.396259     -1.548331
  H       3.283228     -0.210434     -4.130148
  H      -0.580203     -3.288891     -0.335713
  H      -0.994533     -2.464812      2.227701
  H       1.320689     -1.497890      3.146626
  O       1.709521      2.325987      0.066662
  O       0.583372      1.034489      1.489716
  C       1.133693      2.130202      1.156645
  C       1.098578      3.242609      2.161899
  H       0.974080      4.202885      1.666713
  H       2.054007      3.272366      2.688502
  H       0.310940      3.093940      2.894992
  H       3.208921     -1.835786      1.265744
  H       1.998931     -2.913446     -0.916258
39
Coordinates from ORCA-job reaction4-IEIP_ts_guess_scan_13-8_orca E -1288.399957113920
  Ir      0.618924     -0.724480      0.395639
  C       0.153814     -2.845709      0.323788
  C      -0.071035     -2.405501      1.676434
  C       2.157806     -2.058406      1.160828
  C       1.521277     -2.654877      0.020910
  C       1.164229     -1.938929      2.174989
  N      -1.077212      0.120103     -0.513190
  C      -2.344409      0.312940      0.205662
  C      -3.142968      1.517526     -0.271757
  H      -3.972248      1.684290      0.413847
  H      -3.580564      1.371447     -1.260243
  H      -2.541092      2.426492     -0.284788
  C      -3.167157     -0.968536      0.127565
  H      -2.057773      0.484767      1.244322
  H      -4.068828     -0.868541      0.730487
  H      -3.473031     -1.176704     -0.898492
  H      -2.617131     -1.831335      0.499708
  C      -0.928651      0.482894     -1.734977
  C       0.390077      0.302900     -2.258907
  H      -1.734686      0.923732     -2.312051
  C       1.403641      0.028132     -1.333829
  C       2.628464     -0.213667     -2.037980
  S       0.909102      0.293864     -3.871881
  C       2.504447     -0.102922     -3.388656
  H       1.618635      1.150531     -0.664738
  H       3.575473     -0.400820     -1.552308
  H       3.278192     -0.209886     -4.133669
  H      -0.580414     -3.286602     -0.334506
  H      -0.996740     -2.462058      2.228178
  H       1.317882     -1.494896      3.148410
  O       1.736323      2.313053      0.080177
  O       0.581117      1.035654      1.488495
  C       1.140887      2.126910      1.161052
  C       1.101576      3.242437      2.163224
  H       0.992374      4.202625      1.664267
  H       2.049832      3.265237      2.703031
  H       0.302588      3.102487      2.885707
  H       3.207404     -1.833194      1.269225
  H       1.999244     -2.911766     -0.913233
39
Coordinates from ORCA-job reaction4-IEIP_ts_guess_scan_13-8_orca E -1288.399997011648
  Ir      0.618020     -0.726659      0.396417
  C       0.149999     -2.847036      0.328700
  C      -0.073401     -2.406519      1.681453
  C       2.155245     -2.061605      1.163704
  C       1.517656     -2.658258      0.024689
  C       1.162275     -1.940684      2.178532
  N      -1.077449      0.119077     -0.513255
  C      -2.345289      0.310556      0.205008
  C      -3.144497      1.515145     -0.271330
  H      -3.974174      1.680527      0.414097
  H      -3.581602      1.369907     -1.260156
  H      -2.543240      2.424550     -0.283033
  C      -3.167514     -0.971199      0.125566
  H      -2.059253      0.481537      1.244020
  H      -4.069580     -0.872000      0.728019
  H      -3.472651     -1.178760     -0.900837
  H      -2.617348     -1.833965      0.497457
  C      -0.928406      0.484174     -1.734358
  C       0.389786      0.304196     -2.259239
  H      -1.734638      0.925661     -2.310656
  C       1.402134      0.022833     -1.334679
  C       2.628346     -0.213003     -2.038410
  S       0.910228      0.301981     -3.871786
  C       2.507087     -0.087926     -3.388150
  H       1.619603      1.150975     -0.670492
  H       3.574674     -0.403005     -1.552570
  H       3.282766     -0.185513     -4.132453
  H      -0.585102     -3.287646     -0.328823
  H      -0.998929     -2.461431      2.233629
  H       1.317119     -1.496049      3.151489
  O       1.740254      2.311924      0.076398
  O       0.585057      1.036258      1.486229
  C       1.147080      2.125722      1.158893
  C       1.106506      3.243843      2.158233
  H       0.997139      4.202864      1.657075
  H       2.054385      3.268316      2.698606
  H       0.307090      3.105130      2.880492
  H       3.205214     -1.837937      1.271701
  H       1.994778     -2.916794     -0.909440
39
Coordinates from ORCA-job reaction4-IEIP_ts_guess_scan_13-8_orca E -1288.400060613353
  Ir      0.615132     -0.731835      0.397856
  C       0.142344     -2.850354      0.340272
  C      -0.079200     -2.408790      1.693006
  C       2.149102     -2.066957      1.171926
  C       1.510588     -2.665220      0.034711
  C       1.156561     -1.943143      2.187528
  N      -1.078656      0.115289     -0.514085
  C      -2.347854      0.303420      0.203084
  C      -3.148458      1.508131     -0.270511
  H      -3.978920      1.670197      0.414692
  H      -3.584580      1.365101     -1.260110
  H      -2.548579      2.418506     -0.279012
  C      -3.168772     -0.978952      0.120076
  H      -2.063193      0.472216      1.242917
  H      -4.071833     -0.881638      0.721308
  H      -3.472054     -1.184902     -0.907210
  H      -2.618410     -1.841776      0.491328
  C      -0.927941      0.487864     -1.733075
  C       0.390233      0.311264     -2.259072
  H      -1.734012      0.933004     -2.306798
  C       1.398990      0.011768     -1.335893
  C       2.628387     -0.210970     -2.038569
  S       0.918165      0.341739     -3.868897
  C       2.512342     -0.059303     -3.386208
  H       1.622642      1.151611     -0.680548
  H       3.572210     -0.413226     -1.552864
  H       3.290997     -0.143191     -4.129099
  H      -0.593805     -3.291322     -0.315880
  H      -1.004762     -2.460460      2.245366
  H       1.312958     -1.496466      3.159295
  O       1.737764      2.317187      0.059982
  O       0.592670      1.038871      1.478041
  C       1.151885      2.127635      1.147058
  C       1.121210      3.245732      2.146907
  H       1.008408      4.205049      1.647191
  H       2.073632      3.269126      2.679322
  H       0.327798      3.107262      2.875802
  H       3.199610     -1.845762      1.279762
  H       1.986770     -2.927515     -0.898859
39
Coordinates from ORCA-job reaction4-IEIP_ts_guess_scan_13-8_orca E -1288.400069346703
  Ir      0.614810     -0.734151      0.397588
  C       0.141456     -2.851611      0.341764
  C      -0.081853     -2.409861      1.694195
  C       2.147147     -2.068037      1.175917
  C       1.510423     -2.667175      0.038252
  C       1.153090     -1.943850      2.190195
  N      -1.077831      0.113845     -0.514586
  C      -2.346428      0.302367      0.203430
  C      -3.146967      1.507338     -0.269519
  H      -3.976807      1.669493      0.416427
  H      -3.583921      1.364610     -1.258801
  H      -2.546846      2.417552     -0.278300
  C      -3.167639     -0.979786      0.120928
  H      -2.060934      0.471173      1.243034
  H      -4.070541     -0.881975      0.722320
  H      -3.471163     -1.185909     -0.906239
  H      -2.617491     -1.842730      0.492317
  C      -0.927543      0.488629     -1.732565
  C       0.390195      0.312339     -2.258979
  H      -1.733464      0.935568     -2.305061
  C       1.398412      0.008417     -1.336720
  C       2.628219     -0.210819     -2.039729
  S       0.919704      0.353272     -3.868009
  C       2.513024     -0.051736     -3.386687
  H       1.623313      1.152262     -0.686374
  H       3.571430     -0.417427     -1.554692
  H       3.292082     -0.131958     -4.129572
  H      -0.593707     -3.292964     -0.315234
  H      -1.008391     -2.460851      2.244985
  H       1.308218     -1.496521      3.161851
  O       1.735468      2.317479      0.055175
  O       0.593165      1.038129      1.474603
  C       1.150511      2.127275      1.142897
  C       1.121767      3.245032      2.143270
  H       1.008056      4.204556      1.644157
  H       2.075176      3.268094      2.673922
  H       0.329731      3.106311      2.873628
  H       3.197517     -1.846941      1.285336
  H       1.987984     -2.930250     -0.894387
39
Coordinates from ORCA-job reaction4-IEIP_ts_guess_scan_13-8_orca E -1288.400073610077
  Ir      0.615177     -0.735846      0.397271
  C       0.142362     -2.852812      0.341518
  C      -0.083418     -2.410785      1.693567
  C       2.146405     -2.068382      1.179202
  C       1.512012     -2.668321      0.040662
  C       1.150422     -1.944255      2.191773
  N      -1.077553      0.113233     -0.514549
  C      -2.345798      0.301680      0.204254
  C      -3.145984      1.507506     -0.267105
  H      -3.975401      1.669195      0.419484
  H      -3.583488      1.366136     -1.256334
  H      -2.545524      2.417507     -0.275073
  C      -3.167559     -0.980012      0.120471
  H      -2.059842      0.469387      1.243882
  H      -4.070458     -0.882307      0.721899
  H      -3.471130     -1.184976     -0.906906
  H      -2.617931     -1.843650      0.490984
  C      -0.927467      0.489748     -1.731916
  C       0.390180      0.313026     -2.258525
  H      -1.733037      0.938102     -2.303746
  C       1.398483      0.007181     -1.336974
  C       2.628123     -0.210983     -2.040642
  S       0.919990      0.358767     -3.867277
  C       2.512689     -0.049673     -3.387374
  H       1.623386      1.152708     -0.689462
  H       3.571189     -0.419882     -1.556301
  H       3.291507     -0.129095     -4.130592
  H      -0.591370     -3.294857     -0.316609
  H      -1.011019     -2.461740      2.242567
  H       1.303683     -1.496581      3.163555
  O       1.734717      2.317922      0.052217
  O       0.594170      1.037853      1.472568
  C       1.150729      2.127286      1.140433
  C       1.121452      3.245168      2.140631
  H       1.006931      4.204546      1.641403
  H       2.075037      3.268832      2.670930
  H       0.329785      3.106072      2.871323
  H       3.196497     -1.846901      1.290508
  H       1.991421     -2.931606     -0.890975
39
Coordinates from ORCA-job reaction4-IEIP_ts_guess_scan_13-8_orca E -1288.400077090459
  Ir      0.615867     -0.737627      0.396708
  C       0.144969     -2.854249      0.340071
  C      -0.085934     -2.411719      1.691316
  C       2.145385     -2.067564      1.184861
  C       1.515782     -2.668981      0.044501
  C       1.145513     -1.944015      2.194013
  N      -1.077363      0.112896     -0.514121
  C      -2.345195      0.300717      0.205681
  C      -3.144829      1.507993     -0.262889
  H      -3.973890      1.668525      0.424425
  H      -3.582741      1.369174     -1.252293
  H      -2.543952      2.417740     -0.268907
  C      -3.167545     -0.980380      0.118968
  H      -2.058774      0.466215      1.245496
  H      -4.070516     -0.883528      0.720447
  H      -3.471069     -1.182885     -0.908904
  H      -2.618510     -1.845245      0.487484
  C      -0.927683      0.491439     -1.730860
  C       0.389868      0.313682     -2.257920
  H      -1.732804      0.941450     -2.301977
  C       1.398664      0.006460     -1.337313
  C       2.627626     -0.211740     -2.042263
  S       0.918649      0.360979     -3.866866
  C       2.511458     -0.048547     -3.388743
  H       1.623084      1.153641     -0.693665
  H       3.570846     -0.422356     -1.558954
  H       3.289754     -0.127288     -4.132570
  H      -0.585767     -3.297865     -0.320312
  H      -1.015550     -2.463133      2.236864
  H       1.294814     -1.495892      3.166190
  O       1.732883      2.319079      0.047890
  O       0.595467      1.037809      1.469785
  C       1.149739      2.128172      1.136450
  C       1.122125      3.245074      2.137749
  H       1.006934      4.204922      1.639578
  H       2.076593      3.268011      2.666521
  H       0.331680      3.105446      2.869645
  H       3.194848     -1.844991      1.299870
  H       1.998947     -2.932229     -0.885217
39
Coordinates from ORCA-job reaction4-IEIP_ts_guess_scan_13-8_orca E -1288.400079101540
  Ir      0.616682     -0.738268      0.396320
  C       0.147905     -2.855040      0.337881
  C      -0.087645     -2.412564      1.688527
  C       2.144853     -2.066311      1.189190
  C       1.519622     -2.668648      0.047052
  C       1.141471     -1.943883      2.195350
  N      -1.077177      0.113212     -0.513164
  C      -2.344810      0.300119      0.207149
  C      -3.143818      1.508839     -0.258735
  H      -3.972911      1.668104      0.428835
  H      -3.581585      1.372636     -1.248567
  H      -2.542541      2.418332     -0.262435
  C      -3.167618     -0.980468      0.117195
  H      -2.058252      0.463177      1.247299
  H      -4.070570     -0.884906      0.718917
  H      -3.471228     -1.180189     -0.911197
  H      -2.618875     -1.846552      0.483299
  C      -0.927942      0.492826     -1.729641
  C       0.389514      0.314611     -2.257392
  H      -1.732876      0.943967     -2.300142
  C       1.398894      0.006872     -1.337512
  C       2.626881     -0.213018     -2.043795
  S       0.916704      0.361039     -3.866789
  C       2.509500     -0.050624     -3.390226
  H       1.623205      1.154388     -0.695668
  H       3.570422     -0.424323     -1.561400
  H       3.286928     -0.130764     -4.134809
  H      -0.580080     -3.300023     -0.324600
  H      -1.018989     -2.464810      2.231055
  H       1.287085     -1.495774      3.168085
  O       1.733061      2.319930      0.045715
  O       0.597474      1.037703      1.468362
  C       1.151557      2.128238      1.134917
  C       1.121813      3.245504      2.135723
  H       1.005940      4.205083      1.637177
  H       2.075883      3.269600      2.665163
  H       0.331016      3.105250      2.867109
  H       3.193725     -1.842707      1.307556
  H       2.006154     -2.931367     -0.881064
39
Coordinates from ORCA-job reaction4-IEIP_ts_guess_scan_13-8_orca E -1288.400081504735
  Ir      0.617307     -0.738020      0.396213
  C       0.151535     -2.855501      0.335622
  C      -0.088894     -2.413621      1.685768
  C       2.144557     -2.064099      1.193682
  C       1.524030     -2.667346      0.049658
  C       1.137540     -1.943559      2.196822
  N      -1.077482      0.113504     -0.512256
  C      -2.345229      0.299319      0.208061
  C      -3.143427      1.509617     -0.255063
  H      -3.972861      1.667533      0.432395
  H      -3.580626      1.376268     -1.245533
  H      -2.541639      2.418776     -0.256032
  C      -3.168599     -0.980688      0.114536
  H      -2.058904      0.459616      1.248715
  H      -4.071399     -0.886701      0.716731
  H      -3.472496     -1.177199     -0.914397
  H      -2.620012     -1.848083      0.477746
  C      -0.928690      0.493215     -1.728792
  C       0.388605      0.314985     -2.257367
  H      -1.733769      0.944595     -2.298926
  C       1.398557      0.007520     -1.337881
  C       2.625711     -0.214238     -2.045251
  S       0.913913      0.358219     -3.867377
  C       2.507244     -0.053248     -3.391652
  H       1.622798      1.155245     -0.697036
  H       3.569719     -0.424873     -1.563454
  H       3.283984     -0.134663     -4.136816
  H      -0.573465     -3.302066     -0.329048
  H      -1.021947     -2.467204      2.225231
  H       1.279164     -1.495639      3.170232
  O       1.732933      2.320972      0.044014
  O       0.599428      1.038252      1.467864
  C       1.152779      2.128979      1.133817
  C       1.123592      3.246116      2.134820
  H       1.007806      4.205861      1.636591
  H       2.077808      3.269903      2.664028
  H       0.332979      3.105804      2.866394
  H       3.192756     -1.839222      1.315562
  H       2.014062     -2.929138     -0.876881
39
Coordinates from ORCA-job reaction4-IEIP_ts_guess_scan_13-8_orca E -1288.400084238280
  Ir      0.617848     -0.737270      0.396238
  C       0.156746     -2.855831      0.332171
  C      -0.090705     -2.415685      1.681798
  C       2.143936     -2.060579      1.200148
  C       1.530290     -2.664843      0.053288
  C       1.131738     -1.943491      2.199028
  N      -1.077857      0.113528     -0.511175
  C      -2.345684      0.298235      0.209150
  C      -3.142501      1.510821     -0.250291
  H      -3.972279      1.667309      0.437055
  H      -3.579104      1.381306     -1.241534
  H      -2.539673      2.419281     -0.247850
  C      -3.170064     -0.980843      0.111335
  H      -2.059569      0.454834      1.250441
  H      -4.072198     -0.888887      0.714824
  H      -3.475087     -1.172978     -0.918105
  H      -2.621443     -1.850030      0.470259
  C      -0.929953      0.492508     -1.728026
  C       0.386921      0.314685     -2.257878
  H      -1.735630      0.943497     -2.297688
  C       1.397498      0.007798     -1.338780
  C       2.623882     -0.215711     -2.047208
  S       0.910189      0.354532     -3.868536
  C       2.504260     -0.056298     -3.393551
  H       1.621842      1.156063     -0.698773
  H       3.568432     -0.425207     -1.565954
  H       3.280294     -0.138937     -4.139319
  H      -0.563903     -3.304438     -0.335827
  H      -1.026246     -2.471389      2.216734
  H       1.267538     -1.496073      3.173494
  O       1.732235      2.322158      0.041660
  O       0.601891      1.038999      1.467609
  C       1.154161      2.129829      1.132537
  C       1.126564      3.246990      2.133640
  H       1.011282      4.206940      1.635724
  H       2.081050      3.269975      2.662411
  H       0.336232      3.107070      2.865605
  H       3.191123     -1.833857      1.327194
  H       2.025316     -2.924826     -0.871109
39
Coordinates from ORCA-job reaction4-IEIP_ts_guess_scan_13-8_orca E -1288.400087032019
  Ir      0.618218     -0.736846      0.396422
  C       0.161827     -2.856227      0.328773
  C      -0.092368     -2.418317      1.678032
  C       2.143338     -2.057365      1.206509
  C       1.536373     -2.662376      0.056796
  C       1.126227     -1.944003      2.201321
  N      -1.078172      0.112915     -0.510386
  C      -2.345865      0.297228      0.210257
  C      -3.140861      1.512279     -0.245749
  H      -3.970634      1.668011      0.441765
  H      -3.577353      1.386415     -1.237514
  H      -2.536546      2.419731     -0.240525
  C      -3.171793     -0.980596      0.108884
  H      -2.059710      0.450434      1.252044
  H      -4.072948     -0.890059      0.714036
  H      -3.478472     -1.168606     -0.920834
  H      -2.623350     -1.851642      0.463616
  C      -0.931329      0.490850     -1.727643
  C       0.385045      0.313346     -2.258618
  H      -1.737773      0.941027     -2.296909
  C       1.396134      0.007020     -1.339889
  C       2.622220     -0.216701     -2.048888
  S       0.907258      0.352283     -3.869597
  C       2.501859     -0.057927     -3.395166
  H       1.620519      1.156108     -0.700539
  H       3.567117     -0.425438     -1.567972
  H       3.277479     -0.140770     -4.141342
  H      -0.554599     -3.306541     -0.342590
  H      -1.030361     -2.476058      2.208451
  H       1.256416     -1.497194      3.176827
  O       1.730901      2.322730      0.039064
  O       0.603785      1.039531      1.467504
  C       1.154816      2.130419      1.131097
  C       1.129054      3.247907      2.131938
  H       1.014463      4.207893      1.633972
  H       2.083804      3.270005      2.660274
  H       0.338975      3.108823      2.864357
  H       3.189512     -1.828860      1.338600
  H       2.036162     -2.920238     -0.865636
39
Coordinates from ORCA-job reaction4-IEIP_ts_guess_scan_13-8_orca E -1288.400090011296
  Ir      0.618594     -0.736713      0.396737
  C       0.167858     -2.856711      0.324422
  C      -0.094390     -2.421852      1.673306
  C       2.142574     -2.053873      1.214121
  C       1.543621     -2.659447      0.060834
  C       1.119657     -1.945144      2.204027
  N      -1.078363      0.111654     -0.509551
  C      -2.345615      0.296139      0.211919
  C      -3.137989      1.514427     -0.239972
  H      -3.967338      1.669819      0.448139
  H      -3.574918      1.392969     -1.232093
  H      -2.531451      2.420362     -0.231909
  C      -3.173915     -0.979842      0.106729
  H      -2.059100      0.445419      1.254152
  H      -4.073603     -0.890534      0.714238
  H      -3.483096     -1.162949     -0.923127
  H      -2.625912     -1.853279      0.456344
  C      -0.933029      0.488019     -1.727443
  C       0.382718      0.310611     -2.259596
  H      -1.740518      0.936806     -2.296348
  C       1.394432      0.005066     -1.341396
  C       2.620511     -0.217536     -2.050692
  S       0.904466      0.350510     -3.870736
  C       2.499526     -0.058737     -3.396917
  H       1.618787      1.155125     -0.702536
  H       3.565682     -0.425719     -1.570068
  H       3.274861     -0.140910     -4.143463
  H      -0.543509     -3.308712     -0.351148
  H      -1.035399     -2.481867      2.198120
  H       1.243169     -1.499240      3.180803
  O       1.728924      2.322633      0.035704
  O       0.605437      1.039902      1.467384
  C       1.154944      2.130827      1.129066
  C       1.130982      3.249102      2.129078
  H       1.017565      4.208894      1.630512
  H       2.085788      3.270164      2.657354
  H       0.340852      3.111506      2.861749
  H       3.187504     -1.823310      1.352328
  H       2.049062     -2.914390     -0.859334
39
Coordinates from ORCA-job reaction4-IEIP_ts_guess_scan_13-8_orca E -1288.400091398655
  Ir      0.618872     -0.736948      0.397000
  C       0.170995     -2.857001      0.321986
  C      -0.095283     -2.423818      1.670708
  C       2.142326     -2.052460      1.217940
  C       1.547395     -2.658045      0.062702
  C       1.116541     -1.946082      2.205311
  N      -1.078339      0.110621     -0.509041
  C      -2.345171      0.295635      0.213165
  C      -3.135697      1.515971     -0.236462
  H      -3.964549      1.671573      0.452223
  H      -3.573203      1.397048     -1.228634
  H      -2.527605      2.420844     -0.227069
  C      -3.175229     -0.979019      0.105960
  H      -2.058291      0.442803      1.255562
  H      -4.074043     -0.890000      0.714816
  H      -3.485949     -1.159384     -0.923914
  H      -2.627822     -1.853968      0.452776
  C      -0.933941      0.485927     -1.727409
  C       0.381508      0.308278     -2.260030
  H      -1.742036      0.933669     -2.296265
  C       1.393676      0.003292     -1.342250
  C       2.619925     -0.217737     -2.051510
  S       0.903449      0.349912     -3.871170
  C       2.498649     -0.058484     -3.397743
  H       1.618024      1.153629     -0.703266
  H       3.565202     -0.425780     -1.571040
  H       3.273932     -0.139682     -4.144448
  H      -0.537837     -3.309595     -0.355833
  H      -1.037871     -2.484814      2.192580
  H       1.236749     -1.500827      3.182787
  O       1.727933      2.321804      0.033952
  O       0.605749      1.039909      1.467357
  C       1.154558      2.130816      1.127806
  C       1.130777      3.249898      2.126873
  H       1.018476      4.209364      1.627446
  H       2.085189      3.270458      2.655882
  H       0.340039      3.113533      2.859126
  H       3.186623     -1.820924      1.359271
  H       2.055649     -2.911225     -0.856405
39
Coordinates from ORCA-job reaction4-IEIP_ts_guess_scan_13-8_orca E -1288.400091422771
  Ir      0.619074     -0.737188      0.397132
  C       0.171607     -2.857070      0.321347
  C      -0.095411     -2.424136      1.670023
  C       2.142407     -2.052532      1.218648
  C       1.548173     -2.657913      0.062931
  C       1.116098     -1.946442      2.205467
  N      -1.078191      0.110218     -0.508750
  C      -2.344825      0.295526      0.213794
  C      -3.134625      1.516623     -0.235095
  H      -3.963208      1.672418      0.453886
  H      -3.572447      1.398584     -1.227230
  H      -2.525944      2.421094     -0.225329
  C      -3.175590     -0.978588      0.105868
  H      -2.057774      0.442045      1.256213
  H      -4.074222     -0.889502      0.714993
  H      -3.486681     -1.158088     -0.924042
  H      -2.628595     -1.854107      0.451924
  C      -0.934098      0.485119     -1.727333
  C       0.381306      0.307208     -2.259962
  H      -1.742343      0.932434     -2.296294
  C       1.393735      0.002423     -1.342449
  C       2.620047     -0.217668     -2.051687
  S       0.903409      0.349844     -3.871122
  C       2.498595     -0.058053     -3.397947
  H       1.618222      1.152506     -0.703065
  H       3.565381     -0.425731     -1.571347
  H       3.273882     -0.138675     -4.144712
  H      -0.536784     -3.309579     -0.356989
  H      -1.038350     -2.485121      2.191274
  H       1.235767     -1.501495      3.183147
  O       1.728118      2.320986      0.033672
  O       0.605406      1.039833      1.467300
  C       1.154261      2.130682      1.127340
  C       1.129654      3.250273      2.125772
  H       1.018284      4.209507      1.625694
  H       2.083450      3.270662      2.655903
  H       0.338043      3.114609      2.857208
  H       3.186602     -1.820909      1.360584
  H       2.056937     -2.910609     -0.856026
