! Opt PBEh-3c
%geom Constraints
{ B 0 20 2.2142857142857144 C }
{ B 24 30 1.4285714285714286 C }
    end
end
%output 
xyzfile=True 
end 
%scf 
maxiter 250 
end
%output
Print[P_Hirshfeld] = 1
end
% maxcore
4000
*xyz 1 1
Ir   0.61918661  -0.71462491   0.43630279 
C    0.09061136  -2.81721772   0.35182263 
C    0.05075122  -2.35375834   1.71323304 
C    2.20845405  -2.10415042   0.92863300 
C    1.40168699  -2.65243093  -0.13595339 
C    1.37688077  -1.95142833   2.05870985 
N   -1.04558000   0.14168121  -0.52138402 
C   -2.31229113   0.41608424   0.17521067 
C   -3.09912023   1.57226941  -0.42340245 
H   -3.92221227   1.82186438   0.24472198 
H   -3.54600466   1.32678626  -1.38778560 
H   -2.48721884   2.46756409  -0.53566940 
C   -3.14485794  -0.85960329   0.23517112 
H   -2.01885032   0.68885798   1.18982542 
H   -4.05000840  -0.68102062   0.81387173 
H   -3.44523485  -1.18286923  -0.76234087 
H   -2.60685840  -1.67602533   0.71450414 
C   -0.88336792   0.39449348  -1.76568825 
C    0.44957534   0.19866478  -2.27115719 
H   -1.68676980   0.77213112  -2.39079576 
C    1.52425664   0.26400788  -1.38518563 
C    2.73697592  -0.06554385  -2.06141535 
S    0.90430863  -0.23825673  -3.84704446 
C    2.55139736  -0.35374913  -3.37772457 
H    1.53416646   1.22698339  -0.63712299 
H    3.71251348  -0.03388880  -1.59844629 
H    3.29964316  -0.60569557  -4.11384790 
H   -0.74539407  -3.20840471  -0.20995299 
H   -0.79670252  -2.38642925   2.38135042 
H    1.67558145  -1.52813402   3.00723134 
O    1.44444898   2.41350189   0.17894157 
O    0.54329875   0.96322377   1.60875868 
C    0.97663559   2.12746622   1.28531078 
C    0.91541341   3.16038718   2.37436034 
H    0.89207571   4.16311816   1.95640877 
H    1.81283207   3.07723237   2.99041551 
H    0.05825598   3.00577138   3.02581554 
H    3.26455790  -1.88604184   0.88331926 
H    1.74633355  -2.90362625  -1.12826140 
*
