39
Coordinates from ORCA-job reaction4-IEIP_ts_guess_scan_14-9_orca E -1288.398598612788
  Ir      0.621172     -0.732115      0.386490
  C       0.176414     -2.852254      0.306443
  C      -0.088779     -2.422809      1.656540
  C       2.148755     -2.046898      1.200426
  C       1.552402     -2.650477      0.045292
  C       1.123943     -1.944307      2.190736
  N      -1.081164      0.113860     -0.512353
  C      -2.346408      0.296188      0.213392
  C      -3.139028      1.516828     -0.231780
  H      -3.966255      1.670336      0.459349
  H      -3.578959      1.399692     -1.223093
  H      -2.531650      2.422175     -0.222005
  C      -3.175555     -0.978974      0.105392
  H      -2.057174      0.441505      1.255378
  H      -4.072917     -0.892152      0.716723
  H      -3.488751     -1.157326     -0.924082
  H      -2.626482     -1.854231      0.448827
  C      -0.939364      0.489116     -1.726079
  C       0.375745      0.305868     -2.245247
  H      -1.744662      0.938141     -2.297882
  C       1.377484     -0.004388     -1.315981
  C       2.607771     -0.229959     -2.017987
  S       0.910704      0.345893     -3.852134
  C       2.498832     -0.070265     -3.365195
  H       1.601474      1.145095     -0.674416
  H       3.548648     -0.442028     -1.530611
  H       3.280260     -0.154824     -4.105160
  H      -0.532742     -3.304188     -0.371477
  H      -1.030698     -2.486400      2.179331
  H       1.245158     -1.501332      3.169125
  O       1.725173      2.320375      0.021453
  O       0.607305      1.042240      1.460219
  C       1.155112      2.132495      1.117688
  C       1.134375      3.253444      2.114692
  H       1.021670      4.212047      1.613700
  H       2.089998      3.274171      2.641523
  H       0.345219      3.119083      2.849027
  H       3.193025     -1.814139      1.339955
  H       2.059320     -2.900297     -0.875478
39
Coordinates from ORCA-job reaction4-IEIP_ts_guess_scan_14-9_orca E -1288.398592799833
  Ir      0.620457     -0.724601      0.381622
  C       0.182574     -2.848600      0.302883
  C      -0.083734     -2.422614      1.653963
  C       2.151665     -2.037095      1.198268
  C       1.558058     -2.642616      0.042727
  C       1.126119     -1.939804      2.188108
  N      -1.086433      0.114381     -0.513685
  C      -2.350404      0.298317      0.214009
  C      -3.144624      1.516410     -0.235194
  H      -3.971196      1.672056      0.456229
  H      -3.585493      1.394789     -1.225560
  H      -2.538088      2.422379     -0.229906
  C      -3.178844     -0.977831      0.112879
  H      -2.059670      0.448324      1.254967
  H      -4.075313     -0.889150      0.725269
  H      -3.493624     -1.160816     -0.915307
  H      -2.628591     -1.851235      0.459124
  C      -0.944176      0.485039     -1.733487
  C       0.372851      0.301246     -2.255737
  H      -1.750724      0.930095     -2.306532
  C       1.374700     -0.002595     -1.324199
  C       2.604687     -0.234026     -2.026021
  S       0.907909      0.333617     -3.863078
  C       2.495494     -0.082565     -3.374084
  H       1.608486      1.169362     -0.705445
  H       3.545870     -0.443241     -1.537817
  H       3.276669     -0.173128     -4.113499
  H      -0.524696     -3.302983     -0.375399
  H      -1.025166     -2.490769      2.176963
  H       1.245527     -1.497792      3.167163
  O       1.783770      2.290229      0.065106
  O       0.590272      1.047110      1.464212
  C       1.168139      2.125940      1.140302
  C       1.131049      3.253893      2.128531
  H       1.056610      4.211054      1.617647
  H       2.065920      3.259658      2.691736
  H       0.311705      3.139901      2.832522
  H       3.195209     -1.801710      1.339003
  H       2.066407     -2.891439     -0.877540
39
Coordinates from ORCA-job reaction4-IEIP_ts_guess_scan_14-9_orca E -1288.397462141982
  Ir      0.629936     -0.730261      0.382792
  C       0.183379     -2.856485      0.297177
  C      -0.079017     -2.441119      1.652548
  C       2.155496     -2.057782      1.195626
  C       1.559444     -2.654794      0.037167
  C       1.130837     -1.965074      2.186896
  N      -1.074471      0.120489     -0.501648
  C      -2.337459      0.307218      0.226605
  C      -3.121958      1.534136     -0.215515
  H      -3.949225      1.690655      0.474865
  H      -3.560863      1.422756     -1.207979
  H      -2.509160      2.435820     -0.202207
  C      -3.174988     -0.962050      0.115087
  H      -2.047259      0.447633      1.269096
  H      -4.071724     -0.871548      0.726842
  H      -3.489687     -1.135253     -0.914827
  H      -2.631532     -1.841920      0.455652
  C      -0.922951      0.502976     -1.725145
  C       0.396892      0.313407     -2.253472
  H      -1.725954      0.957856     -2.295269
  C       1.392279     -0.016966     -1.323093
  C       2.618321     -0.268382     -2.027426
  S       0.934245      0.349329     -3.860625
  C       2.512935     -0.103550     -3.374030
  H       1.674569      1.174047     -0.720858
  H       3.555573     -0.498332     -1.540678
  H       3.292843     -0.204372     -4.113294
  H      -0.525929     -3.304972     -0.382941
  H      -1.019508     -2.510895      2.176844
  H       1.252816     -1.530929      3.169150
  O       1.582689      2.341205     -0.006632
  O       0.593167      1.036965      1.485823
  C       1.089388      2.142884      1.125429
  C       1.087837      3.264889      2.120010
  H       0.916460      4.218015      1.625086
  H       2.069995      3.317821      2.593085
  H       0.345261      3.106582      2.896653
  H       3.200222     -1.828724      1.338216
  H       2.066472     -2.902085     -0.884270
39
Coordinates from ORCA-job reaction4-IEIP_ts_guess_scan_14-9_orca E -1288.398922679826
  Ir      0.620265     -0.732397      0.383619
  C       0.171530     -2.856026      0.313232
  C      -0.087396     -2.429697      1.665696
  C       2.146960     -2.052473      1.200367
  C       1.547124     -2.656937      0.047682
  C       1.125098     -1.950758      2.193932
  N      -1.084212      0.112031     -0.508686
  C      -2.348990      0.294979      0.216505
  C      -3.139218      1.516615     -0.230156
  H      -3.968270      1.670853      0.458638
  H      -3.576184      1.400138     -1.222874
  H      -2.531000      2.421382     -0.218563
  C      -3.179533     -0.979106      0.107287
  H      -2.060710      0.439684      1.258819
  H      -4.077494     -0.891578      0.717657
  H      -3.491875     -1.156805     -0.922560
  H      -2.631746     -1.855064      0.451051
  C      -0.937972      0.489602     -1.728517
  C       0.380725      0.309173     -2.252623
  H      -1.743351      0.940015     -2.298895
  C       1.377784     -0.013729     -1.322160
  C       2.611812     -0.234288     -2.021781
  S       0.921303      0.357943     -3.857918
  C       2.508250     -0.061144     -3.367791
  H       1.618607      1.163211     -0.694494
  H       3.551369     -0.448450     -1.532491
  H       3.293115     -0.138698     -4.104765
  H      -0.540153     -3.308345     -0.361796
  H      -1.026982     -2.493854      2.192441
  H       1.249953     -1.508676      3.172260
  O       1.711636      2.333970      0.013662
  O       0.608250      1.045195      1.458847
  C       1.150760      2.137693      1.115344
  C       1.132816      3.256221      2.113584
  H       1.012283      4.215296      1.615277
  H       2.092113      3.279895      2.633552
  H       0.349456      3.116422      2.852943
  H       3.192111     -1.822623      1.338076
  H       2.051137     -2.910481     -0.873661
39
Coordinates from ORCA-job reaction4-IEIP_ts_guess_scan_14-9_orca E -1288.398970612797
  Ir      0.619906     -0.730215      0.383129
  C       0.171485     -2.853088      0.314108
  C      -0.088650     -2.427417      1.666355
  C       2.145816     -2.049155      1.202727
  C       1.547375     -2.653950      0.049790
  C       1.123154     -1.948162      2.195462
  N      -1.083885      0.112284     -0.510567
  C      -2.348788      0.293981      0.214512
  C      -3.141901      1.513501     -0.232948
  H      -3.970886      1.666825      0.456129
  H      -3.579216      1.394968     -1.225236
  H      -2.535508      2.419503     -0.222742
  C      -3.176882     -0.981957      0.108064
  H      -2.060044      0.440659      1.256492
  H      -4.074657     -0.895212      0.718835
  H      -3.489381     -1.162083     -0.921297
  H      -2.627007     -1.856137      0.453092
  C      -0.939214      0.489675     -1.728888
  C       0.377889      0.309959     -2.253660
  H      -1.745455      0.939678     -2.298306
  C       1.375542     -0.013844     -1.324450
  C       2.608615     -0.234390     -2.024900
  S       0.919385      0.370605     -3.858197
  C       2.503712     -0.060608     -3.370800
  H       1.618255      1.168894     -0.707113
  H       3.547665     -0.453412     -1.536950
  H       3.287333     -0.141014     -4.108825
  H      -0.539489     -3.305577     -0.361531
  H      -1.028851     -2.491470      2.192060
  H       1.247132     -1.505882      3.173810
  O       1.738517      2.320183      0.028336
  O       0.605137      1.046233      1.458398
  C       1.156663      2.134498      1.120636
  C       1.135010      3.255904      2.116160
  H       1.030504      4.214957      1.614201
  H       2.087024      3.271995      2.649699
  H       0.340018      3.125199      2.844718
  H       3.190782     -1.819137      1.341495
  H       2.052269     -2.907602     -0.871059
39
Coordinates from ORCA-job reaction4-IEIP_ts_guess_scan_14-9_orca E -1288.399017740299
  Ir      0.619049     -0.732145      0.383716
  C       0.167478     -2.854203      0.318648
  C      -0.090877     -2.428329      1.671181
  C       2.143349     -2.052377      1.204929
  C       1.543534     -2.657205      0.052933
  C       1.121547     -1.950032      2.198664
  N      -1.084207      0.111656     -0.510304
  C      -2.349862      0.291603      0.214073
  C      -3.143739      1.511082     -0.232164
  H      -3.973281      1.662744      0.456580
  H      -3.580350      1.393541     -1.224880
  H      -2.538109      2.417585     -0.220317
  C      -3.177203     -0.984694      0.105793
  H      -2.061896      0.437218      1.256456
  H      -4.075480     -0.899072      0.715978
  H      -3.488800     -1.163970     -0.923995
  H      -2.627088     -1.858849      0.450387
  C      -0.938827      0.491506     -1.727941
  C       0.377892      0.311709     -2.253529
  H      -1.745157      0.942204     -2.296686
  C       1.374290     -0.018573     -1.325209
  C       2.608671     -0.233884     -2.024949
  S       0.920672      0.377842     -3.857506
  C       2.506412     -0.046999     -3.369394
  H       1.620235      1.169548     -0.712484
  H       3.547052     -0.455573     -1.536969
  H       3.291888     -0.118980     -4.106328
  H      -0.544590     -3.306329     -0.356103
  H      -1.030803     -2.490803      2.197539
  H       1.246986     -1.507313      3.176623
  O       1.741367      2.320164      0.023876
  O       0.609668      1.046878      1.456078
  C       1.163303      2.133538      1.118419
  C       1.139754      3.257476      2.111098
  H       1.034155      4.215280      1.606982
  H       2.091550      3.275966      2.644910
  H       0.344660      3.127378      2.839664
  H       3.188750     -1.823944      1.343034
  H       2.047378     -2.912455     -0.868063
39
Coordinates from ORCA-job reaction4-IEIP_ts_guess_scan_14-9_orca E -1288.399101052017
  Ir      0.615839     -0.736649      0.384894
  C       0.158819     -2.856815      0.330437
  C      -0.096827     -2.430029      1.683301
  C       2.136815     -2.057416      1.212342
  C       1.535383     -2.663772      0.062457
  C       1.116087     -1.952305      2.207666
  N      -1.086021      0.108616     -0.510622
  C      -2.353539      0.283769      0.212056
  C      -3.149607      1.502830     -0.231331
  H      -3.980531      1.650142      0.456625
  H      -3.584482      1.387561     -1.225095
  H      -2.546146      2.410735     -0.215483
  C      -3.178421     -0.993717      0.099051
  H      -2.067627      0.426907      1.255433
  H      -4.078109     -0.911093      0.707531
  H      -3.487459     -1.171063     -0.931856
  H      -2.627536     -1.867639      0.442789
  C      -0.938454      0.496517     -1.725894
  C       0.378545      0.320219     -2.252182
  H      -1.744466      0.950811     -2.292247
  C       1.371074     -0.028694     -1.326369
  C       2.608651     -0.231640     -2.024272
  S       0.928885      0.417150     -3.852238
  C       2.511647     -0.019086     -3.365591
  H       1.625217      1.171492     -0.723012
  H       3.544377     -0.465590     -1.537004
  H       3.300134     -0.078237     -4.100472
  H      -0.554815     -3.309250     -0.342509
  H      -1.036546     -2.489279      2.210330
  H       1.243758     -1.507748      3.184485
  O       1.739921      2.327004      0.006681
  O       0.618781      1.050202      1.446998
  C       1.170150      2.136042      1.106082
  C       1.156713      3.259581      2.099460
  H       1.047875      4.217869      1.597071
  H       2.112983      3.276573      2.625303
  H       0.367649      3.129647      2.834579
  H       3.182890     -1.831564      1.349624
  H       2.037765     -2.922892     -0.858278
39
Coordinates from ORCA-job reaction4-IEIP_ts_guess_scan_14-9_orca E -1288.399120568763
  Ir      0.614796     -0.739348      0.384709
  C       0.156343     -2.858059      0.333790
  C      -0.100639     -2.431074      1.686395
  C       2.133475     -2.058720      1.217460
  C       1.533662     -2.666293      0.067550
  C       1.111461     -1.953027      2.211747
  N      -1.085756      0.106949     -0.511276
  C      -2.353109      0.281406      0.211776
  C      -3.150099      1.499953     -0.231236
  H      -3.980745      1.646589      0.457203
  H      -3.585423      1.384501     -1.224793
  H      -2.547227      2.408251     -0.215541
  C      -3.177204     -0.996564      0.099188
  H      -2.066788      0.424870      1.255014
  H      -4.077035     -0.914051      0.707468
  H      -3.485915     -1.174504     -0.931702
  H      -2.625988     -1.870101      0.443448
  C      -0.938361      0.498226     -1.724956
  C       0.378199      0.322814     -2.251608
  H      -1.744203      0.954649     -2.289798
  C       1.369661     -0.033121     -1.327430
  C       2.608042     -0.230876     -2.025227
  S       0.931163      0.434372     -3.849852
  C       2.512788     -0.006414     -3.364946
  H       1.626651      1.173765     -0.732502
  H       3.542693     -0.471161     -1.539045
  H       3.302218     -0.059607     -4.099287
  H      -0.556520     -3.310970     -0.339660
  H      -1.041293     -2.489223      2.211878
  H       1.238209     -1.507622      3.188278
  O       1.741427      2.326951      0.000850
  O       0.620683      1.050262      1.441738
  C       1.171010      2.135868      1.100339
  C       1.161348      3.258945      2.094430
  H       1.053483      4.217739      1.592816
  H       2.118474      3.273760      2.618790
  H       0.373244      3.130041      2.830781
  H       3.179456     -1.833250      1.356134
  H       2.037189     -2.926739     -0.852183
39
Coordinates from ORCA-job reaction4-IEIP_ts_guess_scan_14-9_orca E -1288.399128713273
  Ir      0.614893     -0.741388      0.384390
  C       0.156655     -2.859408      0.334114
  C      -0.102740     -2.432183      1.686299
  C       2.132056     -2.059203      1.221163
  C       1.534651     -2.667772      0.070553
  C       1.108142     -1.953551      2.213752
  N      -1.085600      0.106314     -0.511255
  C      -2.352725      0.280276      0.212466
  C      -3.149953      1.499133     -0.229228
  H      -3.980214      1.645067      0.459845
  H      -3.585842      1.384529     -1.222632
  H      -2.547185      2.407493     -0.213002
  C      -3.176816     -0.997583      0.098902
  H      -2.065992      0.423001      1.255679
  H      -4.076728     -0.915349      0.707116
  H      -3.485407     -1.174762     -0.932144
  H      -2.625835     -1.871477      0.442577
  C      -0.938253      0.500269     -1.723866
  C       0.378278      0.324896     -2.250630
  H      -1.743601      0.958651     -2.287760
  C       1.369542     -0.034584     -1.327607
  C       2.607752     -0.230954     -2.026094
  S       0.932274      0.444831     -3.847896
  C       2.512397     -0.002965     -3.365332
  H       1.627479      1.175055     -0.737288
  H       3.541943     -0.475239     -1.541030
  H       3.301547     -0.055352     -4.100030
  H      -0.554771     -3.313068     -0.340345
  H      -1.044468     -2.490163      2.209874
  H       1.233064     -1.507795      3.190344
  O       1.743284      2.327075     -0.002267
  O       0.622447      1.050171      1.438614
  C       1.173123      2.135574      1.097404
  C       1.162001      3.259149      2.090919
  H       1.054124      4.217669      1.588757
  H       2.118717      3.274487      2.615992
  H       0.373407      3.130320      2.826770
  H       3.177717     -1.833390      1.361698
  H       2.040009     -2.928583     -0.848079
39
Coordinates from ORCA-job reaction4-IEIP_ts_guess_scan_14-9_orca E -1288.399133525171
  Ir      0.615183     -0.742909      0.383992
  C       0.158523     -2.860731      0.333260
  C      -0.104737     -2.432973      1.684697
  C       2.130963     -2.058426      1.225447
  C       1.537275     -2.668398      0.073671
  C       1.104182     -1.953198      2.215405
  N      -1.085731      0.106124     -0.511014
  C      -2.352648      0.279478      0.213338
  C      -3.149930      1.498874     -0.226744
  H      -3.979900      1.643959      0.462880
  H      -3.586225      1.385507     -1.220108
  H      -2.547199      2.407246     -0.209569
  C      -3.176811     -0.998169      0.098088
  H      -2.065587      0.421045      1.256598
  H      -4.076823     -0.916539      0.706255
  H      -3.485287     -1.173981     -0.933219
  H      -2.626120     -1.872670      0.440631
  C      -0.938434      0.502149     -1.722913
  C       0.378163      0.326073     -2.249827
  H      -1.743260      0.961974     -2.286331
  C       1.369655     -0.034899     -1.327585
  C       2.607334     -0.231441     -2.027069
  S       0.931485      0.447320     -3.847169
  C       2.511637     -0.001391     -3.365979
  H       1.627374      1.176123     -0.741112
  H       3.541550     -0.477329     -1.542853
  H       3.300495     -0.052955     -4.101039
  H      -0.550564     -3.315766     -0.342718
  H      -1.047914     -2.491344      2.205619
  H       1.226092     -1.507092      3.192205
  O       1.742578      2.327983     -0.005746
  O       0.623388      1.050402      1.435916
  C       1.172322      2.136520      1.093827
  C       1.163646      3.258850      2.088748
  H       1.055831      4.218037      1.587850
  H       2.121215      3.272675      2.612349
  H       0.376145      3.129879      2.825726
  H       3.176046     -1.831601      1.368645
  H       2.045458     -2.929213     -0.843409
39
Coordinates from ORCA-job reaction4-IEIP_ts_guess_scan_14-9_orca E -1288.399136129735
  Ir      0.615812     -0.743503      0.383624
  C       0.161371     -2.861617      0.331186
  C      -0.106073     -2.433689      1.681904
  C       2.130444     -2.057059      1.228994
  C       1.540757     -2.668055      0.075797
  C       1.100620     -1.952807      2.216189
  N      -1.085645      0.106546     -0.510205
  C      -2.352331      0.279274      0.214588
  C      -3.149262      1.499557     -0.223616
  H      -3.979187      1.643762      0.466250
  H      -3.585556      1.387895     -1.217175
  H      -2.546337      2.407771     -0.204948
  C      -3.176770     -0.997992      0.097071
  H      -2.065049      0.419154      1.258004
  H      -4.076732     -0.917316      0.705446
  H      -3.485386     -1.171755     -0.934540
  H      -2.626286     -1.873348      0.437776
  C      -0.938580      0.503679     -1.721803
  C       0.378027      0.327062     -2.249209
  H      -1.743080      0.964617     -2.284790
  C       1.370005     -0.034104     -1.327501
  C       2.606714     -0.232689     -2.028315
  S       0.929635      0.446044     -3.847211
  C       2.510016     -0.003526     -3.367243
  H       1.627351      1.176674     -0.742722
  H       3.541264     -0.478796     -1.544841
  H       3.298128     -0.056346     -4.103009
  H      -0.545161     -3.318056     -0.346499
  H      -1.050691     -2.492900      2.200129
  H       1.219192     -1.506722      3.193401
  O       1.742221      2.328744     -0.007632
  O       0.624581      1.050268      1.434492
  C       1.173087      2.136711      1.092278
  C       1.163437      3.258806      2.087427
  H       1.055083      4.218057      1.586756
  H       2.120953      3.273076      2.611123
  H       0.375966      3.129164      2.824303
  H       3.174879     -1.829045      1.375022
  H       2.051948     -2.928344     -0.839762
39
Coordinates from ORCA-job reaction4-IEIP_ts_guess_scan_14-9_orca E -1288.399138763042
  Ir      0.616473     -0.743548      0.383443
  C       0.165393     -2.862454      0.328857
  C      -0.107190     -2.434885      1.678840
  C       2.130071     -2.054799      1.233537
  C       1.545433     -2.666928      0.078561
  C       1.096553     -1.952405      2.217457
  N      -1.085896      0.106912     -0.509270
  C      -2.352572      0.278706      0.215653
  C      -3.148686      1.500508     -0.219729
  H      -3.978857      1.643420      0.470103
  H      -3.584538      1.391641     -1.213790
  H      -2.545275      2.408339     -0.198447
  C      -3.177670     -0.997841      0.094615
  H      -2.065383      0.415810      1.259467
  H      -4.077436     -0.918671      0.703476
  H      -3.486666     -1.168285     -0.937443
  H      -2.627441     -1.874518      0.432308
  C      -0.939145      0.504549     -1.720795
  C       0.377335      0.327681     -2.249025
  H      -1.743573      0.966189     -2.283338
  C       1.369853     -0.033312     -1.327693
  C       2.605617     -0.234097     -2.029857
  S       0.926868      0.443143     -3.847867
  C       2.507767     -0.006577     -3.368839
  H       1.626775      1.177292     -0.744056
  H       3.540675     -0.479534     -1.546995
  H       3.295099     -0.060926     -4.105328
  H      -0.537896     -3.320737     -0.350936
  H      -1.053499     -2.495489      2.193822
  H       1.210923     -1.506492      3.195244
  O       1.741430      2.329826     -0.009662
  O       0.626310      1.050579      1.433715
  C       1.174268      2.137224      1.091060
  C       1.164631      3.259161      2.086406
  H       1.055800      4.218532      1.586074
  H       2.122346      3.273616      2.609744
  H       0.377498      3.129034      2.823553
  H       3.173665     -1.825190      1.383069
  H       2.060313     -2.926285     -0.835194
39
Coordinates from ORCA-job reaction4-IEIP_ts_guess_scan_14-9_orca E -1288.399141225802
  Ir      0.616859     -0.743344      0.383344
  C       0.169397     -2.862996      0.326625
  C      -0.108505     -2.436417      1.675985
  C       2.129409     -2.052206      1.238567
  C       1.550105     -2.665329      0.081679
  C       1.092100     -1.952218      2.219151
  N      -1.086121      0.106868     -0.508543
  C      -2.352757      0.277876      0.216532
  C      -3.147779      1.501438     -0.215829
  H      -3.978142      1.643204      0.473998
  H      -3.583266      1.395616     -1.210380
  H      -2.543589      2.408681     -0.191891
  C      -3.178717     -0.997816      0.092093
  H      -2.065633      0.412033      1.260749
  H      -4.077995     -0.920179      0.701862
  H      -3.488549     -1.164745     -0.940296
  H      -2.628590     -1.875881      0.426398
  C      -0.939956      0.504401     -1.720156
  C       0.376217      0.327614     -2.249341
  H      -1.744645      0.966245     -2.282200
  C       1.369146     -0.033281     -1.328343
  C       2.604330     -0.235253     -2.031431
  S       0.924299      0.441202     -3.848711
  C       2.505647     -0.008629     -3.370381
  H       1.625798      1.177806     -0.745726
  H       3.539767     -0.480164     -1.549015
  H       3.292422     -0.063847     -4.107400
  H      -0.530488     -3.323031     -0.355476
  H      -1.056616     -2.498512      2.187484
  H       1.202077     -1.506564      3.197554
  O       1.740334      2.330734     -0.011932
  O       0.627970      1.050943      1.433109
  C       1.175252      2.137662      1.089787
  C       1.166572      3.259553      2.085235
  H       1.057597      4.219061      1.585214
  H       2.124617      3.273750      2.607979
  H       0.379900      3.129366      2.822873
  H       3.172101     -1.820951      1.391826
  H       2.068801     -2.923503     -0.830252
39
Coordinates from ORCA-job reaction4-IEIP_ts_guess_scan_14-9_orca E -1288.399145772532
  Ir      0.617403     -0.743043      0.383338
  C       0.176841     -2.863843      0.322659
  C      -0.110872     -2.439753      1.670998
  C       2.128128     -2.047386      1.248227
  C       1.558780     -2.662084      0.087697
  C       1.083894     -1.952326      2.222683
  N      -1.086559      0.106080     -0.507485
  C      -2.353033      0.276037      0.218070
  C      -3.145396      1.503341     -0.208403
  H      -3.975885      1.643382      0.481613
  H      -3.580511      1.403589     -1.203747
  H      -2.539173      2.409072     -0.179589
  C      -3.181194     -0.997640      0.087352
  H      -2.065952      0.404477      1.263012
  H      -4.079262     -0.922586      0.699209
  H      -3.493095     -1.157734     -0.945509
  H      -2.631466     -1.878515      0.414967
  C      -0.941794      0.502851     -1.719445
  C       0.373682      0.326309     -2.250335
  H      -1.747315      0.964349     -2.280644
  C       1.367320     -0.034368     -1.329964
  C       2.601910     -0.236934     -2.034174
  S       0.920038      0.438848     -3.850260
  C       2.502056     -0.010988     -3.373010
  H       1.623494      1.178233     -0.749053
  H       3.537869     -0.481191     -1.552416
  H       3.288104     -0.066730     -4.110765
  H      -0.516698     -3.326861     -0.363862
  H      -1.062367     -2.504601      2.175865
  H       1.185733     -1.507263      3.202220
  O       1.738030      2.331848     -0.016339
  O       0.630770      1.051644      1.432272
  C       1.176533      2.138415      1.087263
  C       1.170414      3.260510      2.082565
  H       1.061661      4.220160      1.582810
  H       2.129111      3.273789      2.604139
  H       0.384590      3.130914      2.821238
  H       3.169090     -1.813079      1.408468
  H       2.084492     -2.917730     -0.820924
39
Coordinates from ORCA-job reaction4-IEIP_ts_guess_scan_14-9_orca E -1288.399149785958
  Ir      0.617900     -0.742920      0.383447
  C       0.184179     -2.864497      0.318601
  C      -0.113155     -2.443357      1.665993
  C       2.126838     -2.042846      1.257849
  C       1.567326     -2.658698      0.093574
  C       1.075890     -1.952890      2.226216
  N      -1.086823      0.104635     -0.506590
  C      -2.352936      0.274068      0.219814
  C      -3.141944      1.505648     -0.200445
  H      -3.972161      1.644507      0.490145
  H      -3.577223      1.412386     -1.196346
  H      -2.533019      2.409388     -0.166981
  C      -3.183984     -0.997087      0.082885
  H      -2.065680      0.396573      1.265391
  H      -4.080541     -0.924252      0.697217
  H      -3.498484     -1.150052     -0.950274
  H      -2.634976     -1.881054      0.403453
  C      -0.943802      0.500040     -1.719151
  C       0.370941      0.323680     -2.251563
  H      -1.750457      0.960390     -2.279702
  C       1.365346     -0.036513     -1.331870
  C       2.599726     -0.238218     -2.036670
  S       0.916416      0.437093     -3.851736
  C       2.498965     -0.012209     -3.375406
  H       1.621028      1.177763     -0.752230
  H       3.536068     -0.482063     -1.555440
  H       3.284539     -0.067488     -4.113701
  H      -0.503103     -3.330063     -0.372442
  H      -1.068047     -2.510778      2.164104
  H       1.169762     -1.508591      3.206880
  O       1.735476      2.332182     -0.020771
  O       0.633019      1.052190      1.431689
  C       1.177001      2.139012      1.084557
  C       1.173387      3.261719      2.079203
  H       1.065342      4.221280      1.579169
  H       2.132532      3.273938      2.599983
  H       0.388105      3.133370      2.818696
  H       3.166041     -1.805610      1.425051
  H       2.099879     -2.911485     -0.811859
39
Coordinates from ORCA-job reaction4-IEIP_ts_guess_scan_14-9_orca E -1288.399152623488
  Ir      0.618431     -0.743105      0.383661
  C       0.189826     -2.864955      0.315360
  C      -0.114712     -2.446241      1.662034
  C       2.126024     -2.039845      1.265159
  C       1.573899     -2.656184      0.097890
  C       1.070100     -1.953706      2.228818
  N      -1.086841      0.102922     -0.505840
  C      -2.352490      0.272386      0.221565
  C      -3.138045      1.507988     -0.193320
  H      -3.967670      1.646395      0.498099
  H      -3.573933      1.420452     -1.189473
  H      -2.526296      2.409659     -0.156220
  C      -3.186593     -0.996171      0.079404
  H      -2.064922      0.389799      1.267594
  H      -4.081821     -0.924725      0.695845
  H      -3.503436     -1.143006     -0.953927
  H      -2.638706     -1.883005      0.394045
  C      -0.945444      0.496826     -1.719099
  C       0.368773      0.320453     -2.252480
  H      -1.753194      0.955560     -2.279403
  C       1.363972     -0.039061     -1.333456
  C       2.598395     -0.238917     -2.038411
  S       0.914079      0.435857     -3.852703
  C       2.496959     -0.012350     -3.377108
  H       1.619358      1.176359     -0.754352
  H       3.535004     -0.482540     -1.557597
  H       3.282308     -0.066454     -4.115729
  H      -0.492782     -3.332079     -0.379233
  H      -1.072231     -2.515375      2.154878
  H       1.158068     -1.510192      3.210370
  O       1.733541      2.331601     -0.024151
  O       0.634232      1.052460      1.431412
  C       1.176626      2.139352      1.082214
  C       1.174206      3.263051      2.075709
  H       1.067254      4.222236      1.574754
  H       2.133268      3.274530      2.596667
  H       0.388744      3.136283      2.815301
  H       3.163881     -1.800520      1.437666
  H       2.111540     -2.906549     -0.805204
39
Coordinates from ORCA-job reaction4-IEIP_ts_guess_scan_14-9_orca E -1288.399153355570
  Ir      0.618857     -0.743388      0.383849
  C       0.191808     -2.865127      0.314078
  C      -0.115173     -2.447161      1.660459
  C       2.125931     -2.039292      1.267674
  C       1.576249     -2.655517      0.099251
  C       1.068311     -1.954193      2.229588
  N      -1.086632      0.101964     -0.505342
  C      -2.351994      0.271623      0.222646
  C      -3.135639      1.509318     -0.189661
  H      -3.964782      1.647792      0.502345
  H      -3.572061      1.424583     -1.185819
  H      -2.522316      2.409845     -0.151000
  C      -3.187803     -0.995484      0.077914
  H      -2.064208      0.386597      1.268851
  H      -4.082529     -0.924415      0.695144
  H      -3.505602     -1.139431     -0.955524
  H      -2.640808     -1.883815      0.389959
  C      -0.946011      0.495035     -1.719024
  C       0.368066      0.318551     -2.252608
  H      -1.754276      0.952695     -2.279453
  C       1.363786     -0.040487     -1.334002
  C       2.598235     -0.239026     -2.038989
  S       0.913402      0.435204     -3.852873
  C       2.496390     -0.012041     -3.377711
  H       1.619309      1.175025     -0.754748
  H       3.535007     -0.482533     -1.558443
  H       3.281681     -0.065284     -4.116459
  H      -0.489270     -3.332505     -0.381838
  H      -1.073665     -2.516614      2.151388
  H       1.154375     -1.511145      3.211513
  O       1.733212      2.330758     -0.025281
  O       0.634314      1.052471      1.431316
  C       1.176061      2.139414      1.081100
  C       1.172995      3.263934      2.073620
  H       1.067043      4.222721      1.571701
  H       2.131470      3.275279      2.595670
  H       0.386696      3.138208      2.812500
  H       3.163349     -1.799408      1.442026
  H       2.115594     -2.904962     -0.803080
