39
Generated by autodE on: 2023-08-15. E = -1288.401001 Ha
Ir    0.60258  -0.73388   0.47480
C     0.09677  -2.83503   0.37284
C    -0.05302  -2.36419   1.72548
C     2.16048  -2.10296   1.11108
C     1.44407  -2.66624  -0.00582
C     1.23569  -1.94747   2.16921
N    -1.05039   0.11917  -0.50322
C    -2.33266   0.34361   0.18492
C    -3.12100   1.52698  -0.35844
H    -3.95519   1.73144   0.31104
H    -3.55224   1.33410  -1.34166
H    -2.51524   2.43184  -0.41156
C    -3.15859  -0.93737   0.15105
H    -2.06403   0.56152   1.21961
H    -4.07477  -0.80323   0.72467
H    -3.44011  -1.19655  -0.87043
H    -2.62371  -1.78194   0.58242
C    -0.88733   0.42617  -1.73658
C     0.43397   0.26756  -2.27281
H    -1.70133   0.81800  -2.33926
C     1.52277   0.20447  -1.41273
C     2.71334  -0.06935  -2.14343
S     0.85430   0.03633  -3.90605
C     2.50023  -0.17474  -3.48572
H     1.63565   1.18740  -0.57158
H     3.69687  -0.12672  -1.70029
H     3.23261  -0.34655  -4.25990
H    -0.68641  -3.24181  -0.25030
H    -0.94835  -2.40158   2.32757
H     1.45394  -1.51277   3.13452
O     1.69417   2.29456   0.18607
O     0.54265   1.00032   1.58341
C     1.09671   2.10125   1.26023
C     1.03547   3.20648   2.27231
H     0.98522   4.17527   1.78140
H     1.95046   3.19027   2.86727
H     0.19395   3.08397   2.94893
H     3.21615  -1.88261   1.15002
H     1.86565  -2.91654  -0.96833
