! Opt PBEh-3c
%geom Constraints
{ B 0 20 2.6 C }
{ B 24 30 1.3857142857142857 C }
    end
end
%output 
xyzfile=True 
end 
%scf 
maxiter 250 
end
%output
Print[P_Hirshfeld] = 1
end
% maxcore
4000
*xyz 1 1
Ir   0.56791649  -0.73738145   0.49398399 
C    0.01269384  -2.81402739   0.35404947 
C    0.09836814  -2.37617159   1.72716731 
C    2.18102021  -2.15230092   0.77529413 
C    1.27584050  -2.64579357  -0.23884205 
C    1.46864718  -2.02714843   1.97960503 
N   -1.04089605   0.16720057  -0.50819311 
C   -2.31816253   0.50354589   0.14129383 
C   -3.13259685   1.53945756  -0.61648876 
H   -3.96868103   1.85323763   0.00691099 
H   -3.56335451   1.14955849  -1.54015624 
H   -2.54962940   2.43142990  -0.84818138 
C   -3.11899383  -0.76911248   0.38730593 
H   -2.03392165   0.92768007   1.10596378 
H   -4.03860635  -0.52481008   0.91681013 
H   -3.39415043  -1.25204604  -0.55132296 
H   -2.57494794  -1.48522728   1.00166208 
C   -0.82430254   0.36990773  -1.75005842 
C    0.52882775   0.15418923  -2.21762329 
H   -1.60160087   0.72443945  -2.42131239 
C    1.63938759   0.55927714  -1.48859671 
C    2.83656926   0.15047680  -2.14240745 
S    0.93941501  -0.64539216  -3.67418014 
C    2.61193479  -0.49805383  -3.31662611 
H    1.54601881   1.41936496  -0.66742403 
H    3.82740782   0.37862052  -1.77717569 
H    3.34272498  -0.88236997  -4.01217492 
H   -0.87915249  -3.16813972  -0.14270532 
H   -0.68981374  -2.41542889   2.46491686 
H    1.85920252  -1.64810806   2.91305518 
O    1.31252992   2.43359132   0.26896681 
O    0.53949307   0.89893012   1.69286600 
C    0.91368269   2.09579132   1.38135579 
C    0.86171922   3.07997521   2.51547698 
H    0.81648395   4.09802712   2.13839766 
H    1.77146292   2.98482659   3.11158133 
H    0.02047559   2.88926069   3.17852484 
H    3.22468419  -1.91690837   0.62735916 
H    1.53167380  -2.85117805  -1.26833820 
*
