39
Generated by autodE on: 2023-08-14. E = -1288.400826 Ha
Ir    0.61771  -0.72077   0.44515
C     0.09353  -2.82280   0.35533
C     0.02404  -2.35896   1.71567
C     2.19854  -2.10644   0.97679
C     1.41551  -2.65749  -0.10321
C     1.34084  -1.95335   2.08814
N    -1.04543   0.13385  -0.51603
C    -2.31481   0.39631   0.18097
C    -3.09853   1.56503  -0.39800
H    -3.92339   1.80277   0.27225
H    -3.54258   1.33877  -1.36832
H    -2.48522   2.46148  -0.49162
C    -3.14986  -0.87880   0.21169
H    -2.02633   0.64987   1.20196
H    -4.05635  -0.71184   0.79186
H    -3.44813  -1.17957  -0.79347
H    -2.61441  -1.70690   0.67345
C    -0.88552   0.39879  -1.75871
C     0.44428   0.21208  -2.27241
H    -1.69257   0.77952  -2.37724
C     1.51988   0.24021  -1.38714
C     2.72964  -0.06970  -2.07628
S     0.89525  -0.16306  -3.86604
C     2.54115  -0.30424  -3.40348
H     1.54658   1.21570  -0.62350
H     3.70607  -0.06276  -1.61417
H     3.28780  -0.53059  -4.14947
H    -0.72882  -3.21723  -0.22400
H    -0.83724  -2.39235   2.36579
H     1.61825  -1.52759   3.04206
O     1.49397   2.38738   0.16681
O     0.54833   0.97193   1.60196
C     1.00293   2.12322   1.27150
C     0.94235   3.17599   2.34043
H     0.91837   4.17080   1.90382
H     1.84114   3.10509   2.95596
H     0.08587   3.03267   2.99506
H     3.25555  -1.88945   0.95532
H     1.78097  -2.90841  -1.08815
