39
Generated by autodE on: 2023-08-13. E = -1288.396051 Ha
Ir    0.58008  -0.72924   0.48062
C     0.02414  -2.80850   0.35955
C     0.09766  -2.36347   1.72972
C     2.18915  -2.14344   0.79166
C     1.29263  -2.64589  -0.22537
C     1.46401  -2.00768   1.98828
N    -1.04277   0.16041  -0.51397
C    -2.31870   0.48423   0.14449
C    -3.12633   1.54741  -0.58272
H    -3.95824   1.85145   0.05111
H    -3.56314   1.18751  -1.51566
H    -2.53546   2.43981  -0.79139
C    -3.12673  -0.79088   0.35196
H    -2.03337   0.87813   1.12144
H    -4.04519  -0.55771   0.88854
H    -3.40390  -1.24399  -0.60080
H    -2.58600  -1.52795   0.94392
C    -0.83945   0.36837  -1.75796
C     0.51002   0.16169  -2.23297
H    -1.62465   0.72034  -2.42110
C     1.61317   0.49602  -1.45667
C     2.81596   0.10235  -2.10936
S     0.93451  -0.56329  -3.72008
C     2.60210  -0.47166  -3.32392
H     1.53553   1.38029  -0.64635
H     3.80347   0.28977  -1.71327
H     3.33836  -0.82829  -4.02838
H    -0.86298  -3.16667  -0.14280
H    -0.69635  -2.39836   2.46117
H     1.84636  -1.61985   2.92154
O     1.33889   2.43353   0.25477
O     0.53550   0.91460   1.67712
C     0.92499   2.10403   1.36616
C     0.87467   3.09667   2.49266
H     0.83301   4.11234   2.10884
H     1.78390   3.00275   3.08978
H     0.03226   2.91246   3.15594
H     3.23546  -1.91425   0.65418
H     1.55681  -2.86387  -1.24997
