! Opt PBEh-3c
%geom Constraints
{ B 0 20 2.428571428571429 C }
{ B 24 30 1.4 C }
    end
end
%output 
xyzfile=True 
end 
%scf 
maxiter 250 
end
%output
Print[P_Hirshfeld] = 1
end
% maxcore
4000
*xyz 1 1
Ir   0.58761549  -0.72424668   0.46770629 
C    0.03308453  -2.80600401   0.35694687 
C    0.10071273  -2.35680054   1.72540217 
C    2.19581287  -2.13636306   0.79322561 
C    1.30388817  -2.64527089  -0.22439594 
C    1.46448143  -1.99569754   1.98619993 
N   -1.04433415   0.16067893  -0.51807274 
C   -2.31800020   0.48026507   0.14627077 
C   -3.12494068   1.55244126  -0.56844865 
H   -3.95525263   1.85152607   0.06983373 
H   -3.56403741   1.20303602  -1.50429441 
H   -2.53257321   2.44574825  -0.76877839 
C   -3.12772004  -0.79572314   0.34189949 
H   -2.02977539   0.86324510   1.12664070 
H   -4.04379125  -0.56703898   0.88443021 
H   -3.40894810  -1.23733908  -0.61504111 
H   -2.58581389  -1.54045555   0.92304822 
C   -0.84659779   0.37213002  -1.76233583 
C    0.50179125   0.16342749  -2.23836664 
H   -1.63279366   0.72746192  -2.42230693 
C    1.60083025   0.47009764  -1.44407213 
C    2.80647562   0.07721944  -2.09295366 
S    0.93265153  -0.54087705  -3.73120190 
C    2.59798935  -0.47351149  -3.31889884 
H    1.53145518   1.36370050  -0.64771955 
H    3.79182421   0.24857090  -1.68446626 
H    3.33671459  -0.82480633  -4.02342023 
H   -0.85145182  -3.16770436  -0.14744147 
H   -0.69584703  -2.38976588   2.45403922 
H    1.84234107  -1.60202698   2.91886579 
O    1.34016876   2.44054671   0.24894975 
O    0.53413139   0.91946708   1.66685251 
C    0.92393776   2.10922728   1.35894137 
C    0.87376881   3.09955832   2.48772453 
H    0.83535064   4.11629575   2.10643387 
H    1.78141764   3.00179214   3.08662028 
H    0.02947214   2.91579714   3.14875586 
H    3.24314609  -1.90937705   0.66054178 
H    1.57218570  -2.87003439  -1.24637422 
*
