39
Coordinates from ORCA-job reaction4-IEIP_ts_guess_scan_8-6_orca E -1288.400435097198
  Ir      0.619360     -0.713687      0.436120
  C       0.102547     -2.815022      0.326737
  C       0.046354     -2.358231      1.690610
  C       2.212574     -2.096071      0.930750
  C       1.418165     -2.640899     -0.145094
  C       1.369137     -1.954781      2.054115
  N      -1.045816      0.144269     -0.519237
  C      -2.312528      0.417213      0.178527
  C      -3.096529      1.577920     -0.415051
  H      -3.919363      1.826634      0.253752
  H      -3.543475      1.337906     -1.380754
  H      -2.482207      2.472033     -0.523246
  C      -3.146907     -0.857532      0.231246
  H      -2.019475      0.684691      1.194635
  H      -4.049971     -0.682483      0.814259
  H      -3.450793     -1.172538     -0.767851
  H      -2.608362     -1.678695      0.701954
  C      -0.886346      0.392058     -1.759077
  C       0.444912      0.191802     -2.255483
  H      -1.688416      0.766674     -2.388007
  C       1.521334      0.284903     -1.376049
  C       2.730667     -0.059772     -2.050330
  S       0.893520     -0.280990     -3.824191
  C       2.541558     -0.381421     -3.358329
  H       1.520703      1.234908     -0.610011
  H       3.708175     -0.014902     -1.592556
  H       3.287969     -0.649706     -4.090602
  H      -0.725950     -3.206668     -0.245699
  H      -0.807973     -2.398865      2.349639
  H       1.656092     -1.536288      3.008413
  O       1.438436      2.411767      0.170014
  O       0.549261      0.962396      1.607697
  C       0.977687      2.127287      1.279895
  C       0.920495      3.162164      2.367106
  H       0.881676      4.163351      1.946504
  H       1.827405      3.090325      2.970611
  H       0.073992      3.001159      3.030754
  H       3.267783     -1.871762      0.895647
  H       1.773677     -2.879956     -1.136673
39
Coordinates from ORCA-job reaction4-IEIP_ts_guess_scan_8-6_orca E -1288.400269352009
  Ir      0.615395     -0.704993      0.431170
  C       0.105594     -2.810413      0.328320
  C       0.048625     -2.352530      1.691674
  C       2.212561     -2.082474      0.930395
  C       1.420265     -2.632634     -0.144133
  C       1.368707     -1.942246      2.053245
  N      -1.056824      0.142697     -0.523586
  C      -2.323559      0.414646      0.174676
  C      -3.112599      1.569097     -0.424424
  H      -3.935911      1.818009      0.243687
  H      -3.559247      1.322208     -1.388542
  H      -2.502007      2.465146     -0.537810
  C      -3.153036     -0.862902      0.235153
  H      -2.030431      0.688656      1.189024
  H      -4.056109     -0.688204      0.818247
  H      -3.456878     -1.184375     -0.761908
  H      -2.610844     -1.679488      0.709590
  C      -0.897362      0.383847     -1.769597
  C       0.437740      0.187063     -2.268422
  H      -1.701345      0.751739     -2.400018
  C       1.512577      0.286733     -1.387136
  C       2.724771     -0.055842     -2.057752
  S       0.891146     -0.290236     -3.834229
  C       2.539014     -0.384008     -3.364625
  H       1.510724      1.259924     -0.639819
  H       3.701510     -0.003614     -1.598935
  H       3.287822     -0.652425     -4.094318
  H      -0.721526     -3.206583     -0.243042
  H      -0.804896     -2.395995      2.351476
  H       1.654234     -1.521187      3.006835
  O       1.555829      2.379376      0.223314
  O       0.533086      0.972184      1.607090
  C       1.017972      2.120217      1.304809
  C       0.935149      3.161492      2.383905
  H       0.957892      4.161567      1.959405
  H       1.801798      3.059244      3.039896
  H       0.045772      3.034334      2.996780
  H       3.267151     -1.855401      0.895339
  H       1.776608     -2.873439     -1.134991
39
Coordinates from ORCA-job reaction4-IEIP_ts_guess_scan_8-6_orca E -1288.399993014367
  Ir      0.624900     -0.712240      0.432638
  C       0.102222     -2.818076      0.326550
  C       0.049303     -2.367978      1.692564
  C       2.212172     -2.103522      0.930093
  C       1.417338     -2.645589     -0.146318
  C       1.369020     -1.963503      2.053243
  N      -1.047445      0.148635     -0.511671
  C      -2.313434      0.420115      0.187965
  C      -3.096868      1.582450     -0.403292
  H      -3.920840      1.828670      0.264953
  H      -3.542030      1.345220     -1.370554
  H      -2.483008      2.477379     -0.507800
  C      -3.148211     -0.854414      0.236512
  H      -2.020595      0.684399      1.204977
  H      -4.051418     -0.680982      0.819764
  H      -3.451986     -1.166248     -0.763649
  H      -2.610017     -1.677124      0.704803
  C      -0.880147      0.403215     -1.763401
  C       0.459975      0.203444     -2.270555
  H      -1.681731      0.781586     -2.390582
  C       1.534936      0.270964     -1.383907
  C       2.743707     -0.085110     -2.054578
  S       0.911897     -0.258921     -3.840925
  C       2.556593     -0.392037     -3.366253
  H       1.565346      1.269527     -0.648049
  H       3.719928     -0.054273     -1.592397
  H       3.303219     -0.664282     -4.096631
  H      -0.727178     -3.208221     -0.245731
  H      -0.803207     -2.411265      2.353492
  H       1.657009     -1.548242      3.008618
  O       1.361057      2.414080      0.157226
  O       0.544270      0.962574      1.623124
  C       0.943993      2.131599      1.286182
  C       0.905882      3.171351      2.368454
  H       0.836970      4.169695      1.944689
  H       1.833014      3.117080      2.942247
  H       0.084116      2.999593      3.059618
  H       3.268353     -1.883941      0.896997
  H       1.772265     -2.886417     -1.137675
39
Coordinates from ORCA-job reaction4-IEIP_ts_guess_scan_8-6_orca E -1288.400682250768
  Ir      0.617303     -0.714083      0.435814
  C       0.094653     -2.817143      0.338330
  C       0.041988     -2.359029      1.701535
  C       2.206003     -2.100106      0.936725
  C       1.409900     -2.647167     -0.136340
  C       1.363567     -1.954170      2.060246
  N      -1.049864      0.142413     -0.516848
  C      -2.317659      0.411057      0.179154
  C      -3.103398      1.570333     -0.414905
  H      -3.929072      1.815438      0.251738
  H      -3.546475      1.330338     -1.382414
  H      -2.491601      2.466550     -0.519877
  C      -3.148673     -0.866027      0.228371
  H      -2.026849      0.677574      1.196122
  H      -4.053213     -0.694347      0.810123
  H      -3.450002     -1.180250     -0.771732
  H      -2.608624     -1.686386      0.698726
  C      -0.887068      0.396405     -1.760658
  C       0.448129      0.202831     -2.263478
  H      -1.690037      0.772990     -2.387054
  C       1.523294      0.276025     -1.379004
  C       2.734359     -0.063263     -2.053902
  S       0.900332     -0.250381     -3.836299
  C       2.548184     -0.360500     -3.368094
  H       1.533393      1.242420     -0.616650
  H       3.710619     -0.027847     -1.592541
  H       3.296011     -0.618235     -4.102699
  H      -0.735319     -3.209282     -0.231642
  H      -0.810853     -2.397359      2.362468
  H       1.652284     -1.533478      3.013030
  O       1.453446      2.416060      0.168450
  O       0.550738      0.968277      1.603747
  C       0.987458      2.130064      1.277676
  C       0.932112      3.165760      2.363230
  H       0.898653      4.166921      1.942062
  H       1.837004      3.090179      2.969222
  H       0.082907      3.008209      3.024105
  H       3.261968     -1.879694      0.901092
  H       1.763771     -2.891908     -1.127089
39
Coordinates from ORCA-job reaction4-IEIP_ts_guess_scan_8-6_orca E -1288.400739599374
  Ir      0.617867     -0.713243      0.435357
  C       0.097049     -2.816909      0.339336
  C       0.042775     -2.358927      1.702336
  C       2.207131     -2.097845      0.939173
  C       1.412619     -2.646086     -0.134288
  C       1.363342     -1.952335      2.061720
  N      -1.050069      0.141518     -0.518538
  C      -2.317598      0.411143      0.177977
  C      -3.104014      1.570006     -0.416094
  H      -3.928935      1.815637      0.251266
  H      -3.548254      1.329286     -1.382868
  H      -2.492353      2.466164     -0.522428
  C      -3.149207     -0.865514      0.229502
  H      -2.025953      0.678690      1.194529
  H      -4.053358     -0.692643      0.811526
  H      -3.451229     -1.180938     -0.770012
  H      -2.609320     -1.685432      0.700689
  C      -0.887721      0.395092     -1.762708
  C       0.446866      0.201959     -2.266943
  H      -1.691199      0.771409     -2.388546
  C       1.521879      0.273305     -1.382384
  C       2.732674     -0.064545     -2.058073
  S       0.899265     -0.242313     -3.842120
  C       2.545867     -0.362010     -3.372191
  H       1.534779      1.247658     -0.628418
  H       3.708930     -0.031199     -1.596585
  H       3.293252     -0.620829     -4.106817
  H      -0.731978     -3.210014     -0.231325
  H      -0.810617     -2.397743      2.362510
  H       1.650816     -1.530967      3.014591
  O       1.468337      2.407352      0.178366
  O       0.545399      0.968729      1.605078
  C       0.988387      2.127968      1.283143
  C       0.930781      3.165514      2.367134
  H       0.907225      4.166406      1.944665
  H       1.830147      3.084898      2.980718
  H       0.075177      3.014155      3.021187
  H       3.263025     -1.876910      0.904789
  H       1.767588     -2.891295     -1.124514
39
Coordinates from ORCA-job reaction4-IEIP_ts_guess_scan_8-6_orca E -1288.400760982710
  Ir      0.618053     -0.715667      0.436690
  C       0.095079     -2.818808      0.343268
  C       0.040834     -2.360240      1.705935
  C       2.205615     -2.101386      0.942959
  C       1.411017     -2.649714     -0.130275
  C       1.361385     -1.954178      2.065044
  N      -1.049069      0.140363     -0.518473
  C      -2.316736      0.409990      0.178076
  C      -3.102800      1.569935     -0.414405
  H      -3.927496      1.814975      0.253433
  H      -3.547364      1.330662     -1.381385
  H      -2.490874      2.466054     -0.519655
  C      -3.149266     -0.866136      0.228369
  H      -2.025092      0.676315      1.194972
  H      -4.053456     -0.693089      0.810274
  H      -3.451228     -1.180500     -0.771501
  H      -2.610110     -1.686811      0.699042
  C      -0.886481      0.395560     -1.762587
  C       0.447565      0.202736     -2.268119
  H      -1.690165      0.772734     -2.387671
  C       1.522117      0.268033     -1.382567
  C       2.733365     -0.064886     -2.059854
  S       0.900132     -0.234875     -3.844980
  C       2.547491     -0.350570     -3.376786
  H       1.536608      1.245130     -0.629923
  H       3.709418     -0.034030     -1.597772
  H       3.295440     -0.601809     -4.113457
  H      -0.734113     -3.211532     -0.227431
  H      -0.812826     -2.397589      2.365824
  H       1.648971     -1.532182      3.017609
  O       1.465801      2.406036      0.174743
  O       0.547190      0.968241      1.604716
  C       0.990258      2.126635      1.281690
  C       0.930831      3.166798      2.363144
  H       0.903985      4.166641      1.938394
  H       1.831111      3.090073      2.975860
  H       0.076392      3.014567      3.018548
  H       3.261813     -1.881880      0.909114
  H       1.765974     -2.896407     -1.120125
39
Coordinates from ORCA-job reaction4-IEIP_ts_guess_scan_8-6_orca E -1288.400789407949
  Ir      0.617082     -0.720281      0.439955
  C       0.090727     -2.822227      0.352902
  C       0.035378     -2.361516      1.714526
  C       2.201553     -2.106886      0.953210
  C       1.407717     -2.656422     -0.119728
  C       1.355570     -1.955726      2.073706
  N      -1.047656      0.136785     -0.518904
  C      -2.316013      0.405003      0.177237
  C      -3.101728      1.566897     -0.411959
  H      -3.926550      1.809807      0.256473
  H      -3.546136      1.330762     -1.379782
  H      -2.489796      2.463383     -0.514170
  C      -3.149391     -0.870740      0.223606
  H      -2.025185      0.668494      1.195125
  H      -4.054217     -0.698383      0.804702
  H      -3.450233     -1.182574     -0.777400
  H      -2.611405     -1.692839      0.693108
  C      -0.884776      0.396939     -1.762048
  C       0.448119      0.207414     -2.270115
  H      -1.689019      0.776808     -2.384845
  C       1.521510      0.257660     -1.382224
  C       2.733796     -0.063686     -2.063242
  S       0.902856     -0.201831     -3.853627
  C       2.549383     -0.326824     -3.385200
  H       1.538397      1.237325     -0.628729
  H       3.709141     -0.042419     -1.599155
  H       3.297991     -0.566161     -4.125149
  H      -0.738225     -3.214858     -0.218238
  H      -0.819348     -2.395550      2.373169
  H       1.642588     -1.531515      3.025470
  O       1.460427      2.405617      0.164503
  O       0.549777      0.968945      1.601705
  C       0.989764      2.126555      1.274347
  C       0.937730      3.168872      2.354238
  H       0.907269      4.167943      1.927995
  H       1.842470      3.093637      2.960550
  H       0.088158      3.017237      3.016090
  H       3.258293     -1.889834      0.921072
  H       1.763352     -2.906622     -1.108432
39
Coordinates from ORCA-job reaction4-IEIP_ts_guess_scan_8-6_orca E -1288.400803171193
  Ir      0.616686     -0.722151      0.441715
  C       0.088802     -2.823211      0.357258
  C       0.031790     -2.361068      1.718258
  C       2.199446     -2.108980      0.959694
  C       1.406771     -2.659165     -0.113694
  C       1.351751     -1.955613      2.078673
  N      -1.046496      0.134964     -0.519010
  C      -2.315021      0.401992      0.177324
  C      -3.100594      1.564991     -0.409937
  H      -3.925380      1.806705      0.258978
  H      -3.545022      1.330654     -1.378187
  H      -2.488639      2.461637     -0.510556
  C      -3.148615     -0.873707      0.221123
  H      -2.024596      0.663826      1.195752
  H      -4.053869     -0.702096      0.801786
  H      -3.448734     -1.183924     -0.780599
  H      -2.611149     -1.696663      0.689693
  C      -0.884404      0.397738     -1.761435
  C       0.447289      0.209717     -2.271327
  H      -1.689378      0.778783     -2.382543
  C       1.520659      0.251387     -1.383045
  C       2.732885     -0.063694     -2.066888
  S       0.902244     -0.182596     -3.858953
  C       2.548293     -0.314185     -3.391349
  H       1.539195      1.231476     -0.628472
  H       3.708136     -0.048615     -1.602417
  H       3.296726     -0.547315     -4.133454
  H      -0.739507     -3.215814     -0.214822
  H      -0.824065     -2.393196      2.375513
  H       1.637796     -1.530142      3.030168
  O       1.471124      2.400762      0.164207
  O       0.550205      0.969453      1.600148
  C       0.994910      2.124913      1.272714
  C       0.939510      3.170487      2.349281
  H       0.911977      4.168344      1.920014
  H       1.841656      3.095926      2.959519
  H       0.087005      3.021713      3.007979
  H       3.256468     -1.893066      0.929184
  H       1.763516     -2.911078     -1.101553
39
Coordinates from ORCA-job reaction4-IEIP_ts_guess_scan_8-6_orca E -1288.400810636454
  Ir      0.616441     -0.722590      0.443027
  C       0.088405     -2.823336      0.359230
  C       0.029069     -2.360022      1.719805
  C       2.198304     -2.109271      0.964977
  C       1.407336     -2.659976     -0.109410
  C       1.348636     -1.954718      2.082293
  N      -1.046120      0.134020     -0.518873
  C      -2.315007      0.399649      0.177551
  C      -3.100504      1.563668     -0.407942
  H      -3.925378      1.804216      0.261297
  H      -3.544790      1.331015     -1.376656
  H      -2.488553      2.460485     -0.506990
  C      -3.148616     -0.876138      0.218423
  H      -2.025236      0.659823      1.196572
  H      -4.054409     -0.705604      0.798590
  H      -3.447864     -1.184587     -0.784106
  H      -2.611599     -1.699979      0.685896
  C      -0.884576      0.398238     -1.761057
  C       0.446433      0.210801     -2.272038
  H      -1.690123      0.779445     -2.381259
  C       1.520087      0.247079     -1.383954
  C       2.732046     -0.064375     -2.069624
  S       0.900995     -0.173115     -3.861885
  C       2.547104     -0.306341     -3.395681
  H       1.540054      1.226592     -0.627623
  H       3.707399     -0.052759     -1.605304
  H       3.295405     -0.534900     -4.139337
  H      -0.738846     -3.216246     -0.214152
  H      -0.828008     -2.391268      2.375516
  H       1.633203     -1.528483      3.033889
  O       1.479117      2.396586      0.164592
  O       0.549442      0.970369      1.599733
  C       0.996540      2.124654      1.271348
  C       0.942257      3.171747      2.346414
  H       0.918170      4.169049      1.915653
  H       1.843204      3.095625      2.958232
  H       0.088226      3.026174      3.003809
  H       3.255443     -1.893677      0.936273
  H       1.765681     -2.912660     -1.096489
39
Coordinates from ORCA-job reaction4-IEIP_ts_guess_scan_8-6_orca E -1288.400817064083
  Ir      0.616866     -0.722430      0.443864
  C       0.089239     -2.823174      0.358940
  C       0.027313     -2.359282      1.719350
  C       2.198141     -2.109138      0.968792
  C       1.409093     -2.659853     -0.107033
  C       1.346402     -1.954302      2.084458
  N      -1.045600      0.133801     -0.518038
  C      -2.314681      0.398133      0.178751
  C      -3.099769      1.563696     -0.404410
  H      -3.924588      1.803142      0.265298
  H      -3.544072      1.333256     -1.373637
  H      -2.487485      2.460481     -0.501614
  C      -3.148664     -0.877511      0.216083
  H      -2.025381      0.656062      1.198448
  H      -4.054839     -0.708189      0.796030
  H      -3.447331     -1.183491     -0.787377
  H      -2.612241     -1.702702      0.681825
  C      -0.884635      0.399123     -1.760197
  C       0.445905      0.211968     -2.272216
  H      -1.690647      0.780650     -2.379545
  C       1.520220      0.244068     -1.384941
  C       2.731436     -0.066193     -2.072067
  S       0.899578     -0.165465     -3.864029
  C       2.545291     -0.304280     -3.398731
  H       1.542271      1.222020     -0.625862
  H       3.707072     -0.057689     -1.608290
  H       3.292951     -0.531833     -4.143337
  H      -0.736788     -3.216333     -0.216019
  H      -0.830978     -2.390446      2.373493
  H       1.629268     -1.527974      3.036518
  O       1.486240      2.392784      0.165576
  O       0.549280      0.970815      1.600141
  C       0.999752      2.123878      1.271300
  C       0.941572      3.173466      2.343584
  H       0.918512      4.169680      1.910218
  H       1.840635      3.099208      2.958357
  H       0.085466      3.029197      2.998538
  H       3.255319     -1.893504      0.942002
  H       1.769248     -2.912451     -1.093479
39
Coordinates from ORCA-job reaction4-IEIP_ts_guess_scan_8-6_orca E -1288.400821919420
  Ir      0.617354     -0.721624      0.444459
  C       0.091046     -2.822836      0.357257
  C       0.025845     -2.358844      1.717628
  C       2.198353     -2.108069      0.972245
  C       1.411856     -2.658780     -0.105445
  C       1.344063     -1.953853      2.086020
  N      -1.045297      0.133938     -0.516989
  C      -2.314489      0.397322      0.179986
  C      -3.098974      1.564362     -0.401189
  H      -3.923777      1.803010      0.268813
  H      -3.543206      1.335881     -1.370911
  H      -2.486219      2.460997     -0.496754
  C      -3.148932     -0.878100      0.214130
  H      -2.025564      0.653198      1.200285
  H      -4.055331     -0.709900      0.794062
  H      -3.447286     -1.181671     -0.790159
  H      -2.613012     -1.704649      0.678084
  C      -0.884880      0.399279     -1.759376
  C       0.445298      0.212200     -2.272232
  H      -1.691371      0.780583     -2.378249
  C       1.520298      0.242109     -1.386006
  C       2.730716     -0.068154     -2.074128
  S       0.897588     -0.163904     -3.865003
  C       2.543341     -0.304446     -3.401052
  H       1.544593      1.218646     -0.624510
  H       3.706744     -0.060753     -1.611176
  H       3.290433     -0.531574     -4.146355
  H      -0.733394     -3.216470     -0.219643
  H      -0.833779     -2.390825      2.369995
  H       1.624628     -1.527813      3.038890
  O       1.490129      2.389864      0.166367
  O       0.548716      0.971166      1.601113
  C       1.001216      2.123424      1.271507
  C       0.941092      3.174705      2.341932
  H       0.917824      4.170154      1.906777
  H       1.839603      3.102216      2.957695
  H       0.084361      3.030968      2.996162
  H       3.255475     -1.891909      0.947750
  H       1.774308     -2.910658     -1.091242
39
Coordinates from ORCA-job reaction4-IEIP_ts_guess_scan_8-6_orca E -1288.400825539251
  Ir      0.617706     -0.720770      0.445147
  C       0.093532     -2.822803      0.355333
  C       0.024040     -2.358957      1.715666
  C       2.198536     -2.106442      0.976795
  C       1.415512     -2.657494     -0.103209
  C       1.340841     -1.953352      2.088137
  N      -1.045429      0.133852     -0.516027
  C      -2.314813      0.396313      0.180971
  C      -3.098531      1.565026     -0.397997
  H      -3.923391      1.802770      0.272246
  H      -3.542580      1.338772     -1.368321
  H      -2.485220      2.461484     -0.491615
  C      -3.149862     -0.878798      0.211694
  H      -2.026330      0.649875      1.201958
  H      -4.056347     -0.711840      0.791858
  H      -3.448131     -1.179571     -0.793469
  H      -2.614407     -1.706900      0.673449
  C      -0.885522      0.398787     -1.758712
  C       0.444284      0.212085     -2.272412
  H      -1.692566      0.779523     -2.377245
  C       1.519883      0.240214     -1.387141
  C       2.729641     -0.069701     -2.076277
  S       0.895253     -0.163057     -3.866040
  C       2.541151     -0.304237     -3.403478
  H       1.546580      1.215702     -0.623500
  H       3.706067     -0.062758     -1.614166
  H       3.287795     -0.530586     -4.149466
  H      -0.728815     -3.217225     -0.224002
  H      -0.837237     -2.392349      2.365789
  H       1.618251     -1.527588      3.042061
  O       1.493971      2.387384      0.166814
  O       0.548325      0.971930      1.601962
  C       1.002932      2.123221      1.271504
  C       0.942349      3.175990      2.340431
  H       0.918373      4.170800      1.903818
  H       1.841141      3.105091      2.955959
  H       0.085872      3.032666      2.995058
  H       3.255545     -1.889453      0.955318
  H       1.780970     -2.908414     -1.088150
