39
Generated by autodE on: 2023-08-13. E = -1288.400768 Ha
Ir    0.61884  -0.70571   0.41851
C     0.07569  -2.80187   0.34168
C     0.11421  -2.34193   1.70501
C     2.22477  -2.10610   0.80442
C     1.35689  -2.64145  -0.21939
C     1.46387  -1.95413   1.98068
N    -1.04675   0.16291  -0.52971
C    -2.30940   0.46877   0.15949
C    -3.10743   1.58190  -0.50067
H    -3.92968   1.86313   0.15589
H    -3.55691   1.27896  -1.44761
H    -2.50353   2.47461  -0.66553
C    -3.13078  -0.80724   0.30248
H    -2.00794   0.80166   1.15370
H    -4.03556  -0.59760   0.87105
H    -3.43124  -1.19643  -0.67117
H    -2.58583  -1.58587   0.83418
C    -0.87218   0.38612  -1.77545
C     0.47046   0.16318  -2.25576
H    -1.66191   0.75669  -2.42196
C     1.55196   0.35611  -1.39583
C     2.76669  -0.02947  -2.03949
S     0.92279  -0.46008  -3.76833
C     2.57803  -0.48514  -3.30538
H     1.52048   1.28647  -0.67113
H     3.74360   0.08042  -1.59157
H     3.32443  -0.81291  -4.01300
H    -0.79489  -3.18041  -0.17449
H    -0.69576  -2.37049   2.41847
H     1.81907  -1.53971   2.91334
O     1.33333   2.47653   0.22259
O     0.53603   0.93788   1.62484
C     0.91640   2.13369   1.32702
C     0.84972   3.11416   2.46506
H     0.81652   4.13452   2.09314
H     1.74792   3.01009   3.07684
H    -0.00456   2.92438   3.11156
H     3.27620  -1.88605   0.69709
H     1.64584  -2.89042  -1.22984
