39
Coordinates from ORCA-job reaction4-IEIP_ts_guess_scan_4-13_orca E -1288.396496303474
  Ir      0.590096     -0.734446      0.497190
  C       0.067725     -2.822816      0.358164
  C       0.011515     -2.368835      1.725249
  C       2.181071     -2.125590      0.977514
  C       1.384760     -2.650284     -0.108101
  C       1.340546     -1.987110      2.099154
  N      -1.041201      0.131273     -0.498851
  C      -2.323412      0.402165      0.174712
  C      -3.098676      1.560560     -0.435282
  H      -3.931345      1.812098      0.220240
  H      -3.531624      1.317345     -1.406494
  H      -2.483008      2.454290     -0.538601
  C      -3.158543     -0.872249      0.214859
  H      -2.052515      0.674382      1.195892
  H      -4.075273     -0.695370      0.775679
  H      -3.439060     -1.192045     -0.789598
  H      -2.631870     -1.691690      0.701711
  C      -0.863753      0.370124     -1.741414
  C       0.469369      0.195565     -2.250034
  H      -1.670992      0.720734     -2.378543
  C       1.576750      0.365631     -1.430062
  C       2.767773      0.032485     -2.132244
  S       0.877065     -0.298905     -3.832832
  C       2.540582     -0.332036     -3.425501
  H       1.567167      1.304419     -0.580811
  H       3.759895      0.116325     -1.712906
  H       3.269381     -0.598749     -4.176092
  H      -0.762420     -3.202833     -0.219630
  H      -0.844137     -2.409826      2.382974
  H       1.628935     -1.581649      3.058630
  O       1.489976      2.360075      0.198277
  O       0.549312      0.958717      1.642458
  C       1.003549      2.105388      1.306266
  C       0.955620      3.165493      2.367043
  H       0.891753      4.154931      1.921960
  H       1.879382      3.124537      2.947573
  H       0.128149      3.008426      3.054640
  H       3.235810     -1.898616      0.940990
  H       1.741016     -2.872724     -1.103441
39
Coordinates from ORCA-job reaction4-IEIP_ts_guess_scan_4-13_orca E -1288.396644365738
  Ir      0.592835     -0.736005      0.498108
  C       0.065591     -2.825046      0.364611
  C       0.008551     -2.369418      1.730789
  C       2.179310     -2.130376      0.984936
  C       1.383456     -2.656120     -0.100331
  C       1.337264     -1.988260      2.105147
  N      -1.040987      0.130489     -0.500832
  C      -2.322430      0.400779      0.173049
  C      -3.098705      1.557081     -0.439493
  H      -3.932211      1.808737      0.214889
  H      -3.530352      1.311443     -1.410707
  H      -2.484094      2.451417     -0.543970
  C      -3.155515     -0.874831      0.215479
  H      -2.051170      0.674770      1.193667
  H      -4.072298     -0.698444      0.776335
  H      -3.435901     -1.196693     -0.788353
  H      -2.627256     -1.692569      0.703548
  C      -0.865590      0.372078     -1.745732
  C       0.468051      0.204124     -2.259500
  H      -1.674445      0.725650     -2.379172
  C       1.573151      0.360811     -1.434230
  C       2.764719      0.029862     -2.137289
  S       0.876971     -0.278456     -3.845379
  C       2.539556     -0.320684     -3.434655
  H       1.566467      1.307941     -0.581025
  H       3.756235      0.107015     -1.715217
  H       3.269313     -0.582016     -4.186107
  H      -0.764428     -3.204991     -0.213433
  H      -0.847756     -2.408494      2.387657
  H       1.625072     -1.581619      3.064279
  O       1.494081      2.364279      0.197600
  O       0.549436      0.960367      1.644269
  C       1.006447      2.107102      1.307863
  C       0.959439      3.166728      2.368866
  H       0.896358      4.156540      1.924393
  H       1.883160      3.124655      2.949348
  H       0.131766      3.009746      3.056146
  H       3.234643     -1.906147      0.949671
  H       1.740637     -2.882255     -1.094486
39
Coordinates from ORCA-job reaction4-IEIP_ts_guess_scan_4-13_orca E -1288.396726833891
  Ir      0.591681     -0.736872      0.500121
  C       0.058690     -2.825817      0.376296
  C      -0.000326     -2.366715      1.740557
  C       2.172268     -2.133374      0.997550
  C       1.377878     -2.661815     -0.086909
  C       1.327359     -1.985349      2.115351
  N      -1.038080      0.126478     -0.501412
  C      -2.320087      0.395017      0.171804
  C      -3.098368      1.550419     -0.440035
  H      -3.932428      1.800438      0.214288
  H      -3.529480      1.304502     -1.411383
  H      -2.485230      2.445836     -0.543960
  C      -3.151734     -0.881588      0.214434
  H      -2.049124      0.668816      1.192588
  H      -4.068900     -0.706258      0.775068
  H      -3.431453     -1.204063     -0.789370
  H      -2.622431     -1.698309      0.702898
  C      -0.862974      0.373438     -1.746768
  C       0.469952      0.210688     -2.267482
  H      -1.673234      0.730917     -2.375820
  C       1.574739      0.346838     -1.438211
  C       2.765826      0.027853     -2.148193
  S       0.877579     -0.239218     -3.862608
  C       2.540012     -0.295692     -3.452356
  H       1.572552      1.303928     -0.580528
  H       3.757616      0.094476     -1.724886
  H       3.269315     -0.542942     -4.208936
  H      -0.770857     -3.206194     -0.202104
  H      -0.857917     -2.402270      2.395818
  H       1.613778     -1.575606      3.073573
  O       1.506058      2.362004      0.196261
  O       0.545294      0.962184      1.642247
  C       1.010745      2.105365      1.306350
  C       0.965482      3.166756      2.364803
  H       0.909492      4.156365      1.918885
  H       1.886659      3.120437      2.949011
  H       0.134076      3.014691      3.048557
  H       3.228337     -1.912478      0.964373
  H       1.736608     -2.893696     -1.079132
39
Coordinates from ORCA-job reaction4-IEIP_ts_guess_scan_4-13_orca E -1288.396759365970
  Ir      0.592731     -0.740348      0.503715
  C       0.055666     -2.828759      0.388772
  C      -0.004687     -2.365335      1.751189
  C       2.169613     -2.138361      1.010158
  C       1.375990     -2.669280     -0.073457
  C       1.322738     -1.984256      2.125886
  N      -1.036915      0.122828     -0.502800
  C      -2.320496      0.388905      0.169301
  C      -3.098393      1.546642     -0.438646
  H      -3.933088      1.793880      0.215895
  H      -3.528709      1.304560     -1.411304
  H      -2.485361      2.442619     -0.538385
  C      -3.153325     -0.887215      0.206113
  H      -2.051368      0.658906      1.191597
  H      -4.071694     -0.712841      0.765078
  H      -3.430920     -1.206372     -0.799343
  H      -2.625992     -1.705763      0.693357
  C      -0.862036      0.375739     -1.746889
  C       0.468920      0.216247     -2.271413
  H      -1.673586      0.735140     -2.373117
  C       1.573825      0.335696     -1.439875
  C       2.764434      0.027332     -2.154798
  S       0.875387     -0.207363     -3.873553
  C       2.538088     -0.269715     -3.465319
  H       1.576120      1.297451     -0.580448
  H       3.756292      0.083672     -1.730186
  H       3.267095     -0.503594     -4.226403
  H      -0.773634     -3.209714     -0.189594
  H      -0.863262     -2.397050      2.405327
  H       1.608494     -1.571258      3.082924
  O       1.514296      2.357584      0.193918
  O       0.546171      0.963953      1.640984
  C       1.015667      2.103766      1.303848
  C       0.973394      3.168736      2.358530
  H       0.921127      4.157239      1.909773
  H       1.893969      3.120993      2.943593
  H       0.140858      3.021287      3.041940
  H       3.226310     -1.920370      0.978435
  H       1.735650     -2.906391     -1.064063
39
Coordinates from ORCA-job reaction4-IEIP_ts_guess_scan_4-13_orca E -1288.396775988955
  Ir      0.592070     -0.742907      0.506632
  C       0.053048     -2.830306      0.397800
  C      -0.009448     -2.363467      1.758789
  C       2.166726     -2.140975      1.020794
  C       1.374610     -2.673869     -0.062829
  C       1.317554     -1.982288      2.134274
  N      -1.035460      0.119417     -0.503000
  C      -2.320368      0.382327      0.168598
  C      -3.097897      1.543305     -0.433845
  H      -3.932742      1.787084      0.221760
  H      -3.528102      1.306374     -1.407825
  H      -2.484912      2.439857     -0.528753
  C      -3.153974     -0.893500      0.197676
  H      -2.053081      0.647333      1.192697
  H      -4.073646     -0.721037      0.755069
  H      -3.429234     -1.207947     -0.809913
  H      -2.628495     -1.714667      0.682540
  C      -0.860617      0.378015     -1.745474
  C       0.468302      0.221399     -2.272737
  H      -1.673246      0.739106     -2.369457
  C       1.574208      0.325460     -1.440663
  C       2.763988      0.026470     -2.159975
  S       0.874047     -0.170116     -3.882940
  C       2.535785     -0.250822     -3.474809
  H       1.581232      1.288937     -0.579827
  H       3.755988      0.070396     -1.734330
  H       3.263674     -0.477067     -4.239266
  H      -0.775490     -3.211789     -0.181316
  H      -0.869294     -2.392145      2.411385
  H       1.602153     -1.566485      3.090455
  O       1.523443      2.351372      0.191691
  O       0.545823      0.965915      1.638438
  C       1.020029      2.102083      1.300442
  C       0.979150      3.171743      2.350694
  H       0.931029      4.158658      1.898086
  H       1.898349      3.123262      2.937848
  H       0.144704      3.029632      3.032967
  H       3.223846     -1.924813      0.991042
  H       1.735620     -2.914758     -1.051980
39
Coordinates from ORCA-job reaction4-IEIP_ts_guess_scan_4-13_orca E -1288.396787252082
  Ir      0.590966     -0.744420      0.508515
  C       0.051708     -2.830926      0.399884
  C      -0.012901     -2.363298      1.760566
  C       2.164770     -2.142361      1.026037
  C       1.374231     -2.675297     -0.058714
  C       1.313778     -1.982459      2.137909
  N      -1.034167      0.118245     -0.501679
  C      -2.319353      0.380221      0.169976
  C      -3.095917      1.543477     -0.429547
  H      -3.930419      1.786124      0.226912
  H      -3.526543      1.309550     -1.404066
  H      -2.482296      2.439826     -0.522238
  C      -3.153811     -0.895102      0.194740
  H      -2.052778      0.642496      1.194953
  H      -4.074106     -0.723456      0.751366
  H      -3.427986     -1.206709     -0.814032
  H      -2.629609     -1.718085      0.678032
  C      -0.859364      0.377614     -1.743759
  C       0.468441      0.220194     -2.271539
  H      -1.672380      0.738194     -2.367635
  C       1.575481      0.318842     -1.440373
  C       2.764868      0.026693     -2.162517
  S       0.872701     -0.166313     -3.883492
  C       2.535493     -0.239317     -3.479730
  H       1.584351      1.281650     -0.579327
  H       3.757317      0.069430     -1.737912
  H       3.262953     -0.456864     -4.247140
  H      -0.775904     -3.212240     -0.180671
  H      -0.873900     -2.390956      2.411693
  H       1.597136     -1.565999      3.094174
  O       1.527265      2.345810      0.189862
  O       0.545389      0.965691      1.637240
  C       1.021292      2.100245      1.297904
  C       0.979508      3.173355      2.344987
  H       0.932284      4.158837      1.889216
  H       1.897973      3.126325      2.933383
  H       0.144215      3.033794      3.026774
  H       3.222046     -1.926710      0.998147
  H       1.736637     -2.916909     -1.047158
39
Coordinates from ORCA-job reaction4-IEIP_ts_guess_scan_4-13_orca E -1288.396790561277
  Ir      0.591520     -0.744160      0.508316
  C       0.053535     -2.830887      0.397472
  C      -0.011948     -2.364034      1.758507
  C       2.166037     -2.141754      1.025409
  C       1.376214     -2.674203     -0.060169
  C       1.314538     -1.983088      2.136963
  N      -1.034626      0.119012     -0.501321
  C      -2.319591      0.380823      0.170724
  C      -3.095671      1.544662     -0.428340
  H      -3.930062      1.787392      0.228248
  H      -3.526330      1.311335     -1.402983
  H      -2.481643      2.440750     -0.520705
  C      -3.154276     -0.894363      0.194506
  H      -2.052968      0.642525      1.195807
  H      -4.074602     -0.723042      0.751210
  H      -3.428450     -1.205143     -0.814522
  H      -2.630272     -1.717849      0.677092
  C      -0.860235      0.377686     -1.743778
  C       0.467797      0.220438     -2.271101
  H      -1.673276      0.737816     -2.367830
  C       1.574834      0.320725     -1.440292
  C       2.764134      0.025632     -2.161220
  S       0.872445     -0.168688     -3.882566
  C       2.534733     -0.244164     -3.477731
  H       1.584034      1.282059     -0.579005
  H       3.756522      0.068627     -1.736505
  H       3.262174     -0.464677     -4.244319
  H      -0.773520     -3.212255     -0.183837
  H      -0.873249     -2.392575      2.409208
  H       1.597287     -1.567262      3.093684
  O       1.526961      2.346352      0.190001
  O       0.545982      0.965789      1.637651
  C       1.021044      2.100999      1.297982
  C       0.978165      3.173981      2.345136
  H       0.929429      4.159307      1.889162
  H       1.896933      3.128237      2.933148
  H       0.143338      3.033439      3.027264
  H       3.223201     -1.925464      0.998127
  H       1.739231     -2.914790     -1.048653
39
Coordinates from ORCA-job reaction4-IEIP_ts_guess_scan_4-13_orca E -1288.396794211688
  Ir      0.592015     -0.744163      0.508725
  C       0.055417     -2.831056      0.395202
  C      -0.012999     -2.364848      1.756449
  C       2.166472     -2.141406      1.028092
  C       1.378983     -2.673414     -0.059403
  C       1.312695     -1.983786      2.137960
  N      -1.034401      0.119420     -0.500245
  C      -2.319210      0.380306      0.172343
  C      -3.094457      1.545932     -0.424501
  H      -3.928638      1.788039      0.232598
  H      -3.525210      1.314845     -1.399627
  H      -2.479697      2.441672     -0.515232
  C      -3.154403     -0.894582      0.192794
  H      -2.052751      0.639792      1.197998
  H      -4.074916     -0.724418      0.749574
  H      -3.428329     -1.202742     -0.817108
  H      -2.630885     -1.719572      0.673343
  C      -0.860806      0.377853     -1.743078
  C       0.467035      0.221087     -2.270794
  H      -1.674291      0.737489     -2.366803
  C       1.574555      0.320034     -1.440648
  C       2.763324      0.024095     -2.161793
  S       0.871200     -0.166989     -3.882988
  C       2.533036     -0.245771     -3.478290
  H       1.585682      1.279785     -0.578090
  H       3.755929      0.066082     -1.737517
  H       3.260040     -0.467107     -4.245063
  H      -0.770101     -3.212577     -0.188178
  H      -0.875565     -2.394215      2.405446
  H       1.593416     -1.568480      3.095504
  O       1.529877      2.345047      0.189666
  O       0.546458      0.966277      1.637579
  C       1.021958      2.101432      1.297090
  C       0.976695      3.175644      2.342819
  H       0.926340      4.160148      1.885206
  H       1.895384      3.132415      2.931119
  H       0.141881      3.034676      3.024837
  H       3.223585     -1.924609      1.003105
  H       1.744051     -2.913147     -1.047352
39
Coordinates from ORCA-job reaction4-IEIP_ts_guess_scan_4-13_orca E -1288.396798984102
  Ir      0.592753     -0.744344      0.509708
  C       0.058091     -2.831579      0.392974
  C      -0.015888     -2.365824      1.754224
  C       2.166429     -2.140954      1.034701
  C       1.383388     -2.672834     -0.055997
  C       1.308123     -1.984336      2.141193
  N      -1.033827      0.119370     -0.498527
  C      -2.318642      0.378480      0.174680
  C      -3.092495      1.547344     -0.417902
  H      -3.926496      1.787982      0.239963
  H      -3.523194      1.320493     -1.394035
  H      -2.476557      2.442601     -0.505248
  C      -3.154846     -0.895807      0.188958
  H      -2.052667      0.633721      1.201487
  H      -4.075623     -0.727746      0.745963
  H      -3.428406     -1.199053     -0.822539
  H      -2.632177     -1.723557      0.665696
  C      -0.861420      0.378187     -1.741656
  C       0.465799      0.222232     -2.270711
  H      -1.675795      0.737345     -2.364481
  C       1.574310      0.317145     -1.441637
  C       2.761998      0.021622     -2.164335
  S       0.868428     -0.161346     -3.884769
  C       2.529963     -0.244284     -3.481518
  H       1.589343      1.275032     -0.576505
  H       3.755098      0.061093     -1.741013
  H       3.256084     -0.464523     -4.249454
  H      -0.764620     -3.213611     -0.194008
  H      -0.880866     -2.396180      2.399967
  H       1.584905     -1.569347      3.100026
  O       1.536813      2.341967      0.189155
  O       0.547119      0.967350      1.636974
  C       1.024486      2.101653      1.295322
  C       0.975708      3.178393      2.338174
  H       0.923325      4.161436      1.877587
  H       1.894156      3.139120      2.927095
  H       0.140702      3.037347      3.019884
  H       3.223512     -1.923608      1.014048
  H       1.752353     -2.911788     -1.042701
39
Coordinates from ORCA-job reaction4-IEIP_ts_guess_scan_4-13_orca E -1288.396804294891
  Ir      0.593675     -0.744561      0.510999
  C       0.061625     -2.832424      0.390732
  C      -0.020691     -2.366849      1.751692
  C       2.165800     -2.140018      1.045214
  C       1.389500     -2.672393     -0.049900
  C       1.300560     -1.984354      2.146550
  N      -1.033144      0.118809     -0.496379
  C      -2.318184      0.375321      0.177416
  C      -3.090263      1.548603     -0.409034
  H      -3.924265      1.786797      0.249698
  H      -3.520599      1.327780     -1.386698
  H      -2.472907      2.443363     -0.491237
  C      -3.155696     -0.898155      0.183017
  H      -2.053002      0.624449      1.205897
  H      -4.076620     -0.733226      0.740727
  H      -3.429086     -1.194294     -0.830640
  H      -2.633905     -1.729760      0.654041
  C      -0.862142      0.378793     -1.739589
  C       0.464068      0.223795     -2.270878
  H      -1.677731      0.737694     -2.360995
  C       1.574022      0.312636     -1.443282
  C       2.760108      0.018779     -2.168957
  S       0.863905     -0.152826     -3.887583
  C       2.525480     -0.240261     -3.487200
  H       1.594803      1.268466     -0.574428
  H       3.753982      0.054739     -1.747172
  H       3.250249     -0.457883     -4.257161
  H      -0.756964     -3.215473     -0.201303
  H      -0.889247     -2.398402      2.392563
  H       1.571276     -1.569314      3.107103
  O       1.548138      2.337344      0.188899
  O       0.547995      0.969081      1.635712
  C       1.029034      2.101593      1.293006
  C       0.976056      3.181951      2.331784
  H       0.921138      4.163027      1.867218
  H       1.894340      3.147959      2.921258
  H       0.140911      3.041046      3.013280
  H       3.222838     -1.922034      1.030964
  H       1.764314     -2.910607     -1.034594
39
Coordinates from ORCA-job reaction4-IEIP_ts_guess_scan_4-13_orca E -1288.396809682634
  Ir      0.594507     -0.744651      0.512242
  C       0.066173     -2.833498      0.388375
  C      -0.026977     -2.367814      1.748710
  C       2.164674     -2.137917      1.058833
  C       1.397282     -2.671767     -0.041606
  C       1.290374     -1.983293      2.153442
  N      -1.032865      0.117707     -0.494275
  C      -2.318318      0.371097      0.180017
  C      -3.088545      1.549295     -0.399211
  H      -3.922841      1.784207      0.260294
  H      -3.518142      1.335545     -1.378765
  H      -2.469852      2.443691     -0.475029
  C      -3.157151     -0.901512      0.175609
  H      -2.054137      0.613043      1.210449
  H      -4.077906     -0.740503      0.734742
  H      -3.430888     -1.189137     -0.840413
  H      -2.635916     -1.737554      0.639430
  C      -0.863228      0.379655     -1.737258
  C       0.461770      0.225643     -2.271332
  H      -1.680088      0.738793     -2.356918
  C       1.573409      0.307496     -1.445486
  C       2.757545      0.015824     -2.175057
  S       0.857823     -0.142719     -3.890964
  C       2.519873     -0.234544     -3.494496
  H       1.601319      1.261131     -0.572295
  H       3.752327      0.047628     -1.755099
  H       3.242964     -0.448675     -4.267005
  H      -0.747107     -3.218255     -0.209803
  H      -0.900085     -2.400858      2.383297
  H       1.553001     -1.567628      3.115986
  O       1.563515      2.331504      0.189426
  O       0.548760      0.971384      1.633689
  C       1.035619      2.101111      1.290650
  C       0.978845      3.185651      2.324799
  H       0.921017      4.164523      1.855853
  H       1.897384      3.157614      2.914166
  H       0.143979      3.045108      3.006636
  H       3.221569     -1.919001      1.052709
  H       1.779690     -2.909133     -1.023601
39
Coordinates from ORCA-job reaction4-IEIP_ts_guess_scan_4-13_orca E -1288.396814072100
  Ir      0.594821     -0.744448      0.512974
  C       0.071416     -2.834571      0.385720
  C      -0.033731     -2.368639      1.745204
  C       2.163238     -2.134262      1.073259
  C       1.405918     -2.670598     -0.032689
  C       1.278970     -1.980931      2.160455
  N      -1.033494      0.116381     -0.492825
  C      -2.319455      0.366651      0.181814
  C      -3.088352      1.549029     -0.390702
  H      -3.923276      1.780294      0.269270
  H      -3.516889      1.341842     -1.372129
  H      -2.468917      2.443425     -0.460154
  C      -3.159075     -0.905395      0.168289
  H      -2.056271      0.601999      1.214024
  H      -4.079255     -0.748496      0.729530
  H      -3.433810     -1.184899     -0.849729
  H      -2.637665     -1.745428      0.624732
  C      -0.864837      0.380781     -1.735288
  C       0.459083      0.227524     -2.271972
  H      -1.682637      0.740728     -2.353318
  C       1.572313      0.303272     -1.447830
  C       2.754528      0.013517     -2.181336
  S       0.851076     -0.133774     -3.894010
  C       2.513962     -0.229183     -3.501641
  H       1.607605      1.254827     -0.570730
  H       3.750155      0.041608     -1.763107
  H       3.235318     -0.440204     -4.276608
  H      -0.735999     -3.221670     -0.218820
  H      -0.911748     -2.403445      2.372894
  H       1.532428     -1.564061      3.124956
  O       1.580994      2.325396      0.191189
  O       0.548954      0.974016      1.631126
  C       1.043605      2.100241      1.289046
  C       0.984742      3.188555      2.319134
  H       0.923788      4.165438      1.846343
  H       1.904326      3.166069      2.907094
  H       0.150989      3.048456      3.002349
  H       3.219840     -1.914005      1.075895
  H       1.796713     -2.906848     -1.011667
39
Coordinates from ORCA-job reaction4-IEIP_ts_guess_scan_4-13_orca E -1288.396816956552
  Ir      0.594288     -0.743876      0.512913
  C       0.076655     -2.835360      0.382718
  C      -0.039552     -2.369312      1.741375
  C       2.161854     -2.129291      1.085449
  C       1.414050     -2.668652     -0.025285
  C       1.268578     -1.977632      2.165920
  N      -1.035174      0.115308     -0.492499
  C      -2.321530      0.363169      0.182388
  C      -3.090150      1.547778     -0.385771
  H      -3.925848      1.775899      0.274305
  H      -3.517630      1.344830     -1.368545
  H      -2.470896      2.442641     -0.450619
  C      -3.161020     -0.908923      0.163160
  H      -2.059018      0.594425      1.215699
  H      -4.080342     -0.755361      0.726723
  H      -3.437188     -1.182930     -0.855957
  H      -2.638618     -1.751409      0.613971
  C      -0.866943      0.381956     -1.734352
  C       0.456369      0.229144     -2.272701
  H      -1.685082      0.743061     -2.351323
  C       1.570725      0.301223     -1.449814
  C       2.751507      0.012163     -2.186109
  S       0.845174     -0.128198     -3.896063
  C       2.508926     -0.226036     -3.506763
  H       1.612249      1.251135     -0.570270
  H       3.747677      0.037789     -1.768993
  H       3.228877     -0.435443     -4.283450
  H      -0.725324     -3.225093     -0.227313
  H      -0.921962     -2.405993      2.362770
  H       1.513426     -1.559263      3.132014
  O       1.597201      2.320213      0.194056
  O       0.548083      0.976513      1.628462
  C       1.051451      2.099165      1.288701
  C       0.993044      3.189774      2.316478
  H       0.928938      4.165350      1.841305
  H       1.914594      3.171307      2.901482
  H       0.161422      3.049916      3.002267
  H       3.218026     -1.907320      1.095932
  H       1.812531     -2.903477     -1.001522
39
Coordinates from ORCA-job reaction4-IEIP_ts_guess_scan_4-13_orca E -1288.396818782049
  Ir      0.593054     -0.743146      0.512240
  C       0.080646     -2.835742      0.379886
  C      -0.043160     -2.369871      1.738039
  C       2.160896     -2.124478      1.092681
  C       1.419819     -2.666399     -0.021199
  C       1.261653     -1.974602      2.168684
  N      -1.037310      0.114900     -0.493175
  C      -2.323801      0.361557      0.181901
  C      -3.093198      1.546101     -0.385167
  H      -3.929488      1.772429      0.274787
  H      -3.520029      1.344149     -1.368428
  H      -2.474869      2.441719     -0.448342
  C      -3.162377     -0.911145      0.161464
  H      -2.061460      0.592110      1.215418
  H      -4.080956     -0.759307      0.726710
  H      -3.439769     -1.183507     -0.857749
  H      -2.638659     -1.754104      0.609854
  C      -0.869027      0.382865     -1.734620
  C       0.454255      0.230190     -2.273311
  H      -1.686957      0.744902     -2.351337
  C       1.569054      0.301482     -1.450956
  C       2.749230      0.011929     -2.188221
  S       0.841670     -0.126862     -3.896845
  C       2.505893     -0.225806     -3.508747
  H       1.614332      1.250510     -0.570886
  H       3.745554      0.036865     -1.771405
  H       3.225100     -0.435358     -4.286070
  H      -0.717528     -3.227701     -0.233686
  H      -0.928498     -2.408118      2.355157
  H       1.500520     -1.554997      3.135751
  O       1.608152      2.317133      0.196985
  O       0.546319      0.978344      1.626396
  C       1.057145      2.098310      1.289434
  C       1.001217      3.189245      2.317081
  H       0.934037      4.164390      1.841353
  H       1.925303      3.172849      2.898115
  H       0.172435      3.049021      3.006168
  H       3.216642     -1.900847      1.108417
  H       1.823530     -2.899820     -0.995635
39
Coordinates from ORCA-job reaction4-IEIP_ts_guess_scan_4-13_orca E -1288.396820431275
  Ir      0.591758     -0.742612      0.511592
  C       0.082724     -2.835866      0.378013
  C      -0.044527     -2.370339      1.736037
  C       2.160471     -2.121361      1.095179
  C       1.422555     -2.664659     -0.020106
  C       1.258720     -1.972881      2.169299
  N      -1.038933      0.115047     -0.494094
  C      -2.325345      0.361496      0.181120
  C      -3.095839      1.544815     -0.386935
  H      -3.932327      1.770745      0.272921
  H      -3.522564      1.341762     -1.370012
  H      -2.478469      2.441050     -0.450684
  C      -3.162933     -0.911883      0.162158
  H      -2.062845      0.593402      1.214295
  H      -4.081230     -0.760291      0.727938
  H      -3.440791     -1.185194     -0.856666
  H      -2.638334     -1.754152      0.610770
  C      -0.870472      0.383296     -1.735463
  C       0.453065      0.230664     -2.273710
  H      -1.688066      0.745651     -2.352414
  C       1.567778      0.302558     -1.451305
  C       2.748034      0.012192     -2.188162
  S       0.840726     -0.127544     -3.896943
  C       2.504879     -0.226851     -3.508495
  H       1.614348      1.251330     -0.571787
  H       3.744242      0.037404     -1.771082
  H       3.223975     -0.437228     -4.285698
  H      -0.713614     -3.229164     -0.237085
  H      -0.931147     -2.409525      2.351247
  H       1.494890     -1.552668      3.136769
  O       1.612827      2.316015      0.198791
  O       0.544462      0.979288      1.625274
  C       1.059843      2.097892      1.290316
  C       1.006647      3.187993      2.319007
  H       0.936550      4.163221      1.843793
  H       1.933126      3.172551      2.896218
  H       0.180661      3.046772      3.011191
  H       3.215934     -1.896577      1.113257
  H       1.828592     -2.897160     -0.993802
39
Coordinates from ORCA-job reaction4-IEIP_ts_guess_scan_4-13_orca E -1288.396822002671
  Ir      0.590850     -0.742376      0.511350
  C       0.083308     -2.835935      0.377307
  C      -0.044846     -2.370649      1.735364
  C       2.160266     -2.120058      1.095549
  C       1.423224     -2.663783     -0.020115
  C       1.257982     -1.972336      2.169263
  N      -1.039708      0.115357     -0.494647
  C      -2.326048      0.361855      0.180591
  C      -3.097333      1.544116     -0.388628
  H      -3.933783      1.770235      0.271222
  H      -3.524189      1.339763     -1.371376
  H      -2.480535      2.440668     -0.453435
  C      -3.162989     -0.911957      0.163089
  H      -2.063422      0.595137      1.213418
  H      -4.081432     -0.760123      0.728576
  H      -3.440615     -1.186557     -0.855450
  H      -2.638114     -1.753496      0.612713
  C      -0.871151      0.383449     -1.736111
  C       0.452576      0.230875     -2.273912
  H      -1.688599      0.745663     -2.353307
  C       1.567074      0.303107     -1.451279
  C       2.747616      0.012461     -2.187493
  S       0.841011     -0.127837     -3.897007
  C       2.504836     -0.227362     -3.507811
  H       1.613754      1.251854     -0.572240
  H       3.743681      0.037968     -1.770103
  H       3.224083     -0.438152     -4.284771
  H      -0.712421     -3.229829     -0.238199
  H      -0.931787     -2.410210      2.350080
  H       1.493493     -1.551977      3.136828
  O       1.614048      2.315745      0.199436
  O       0.543199      0.979713      1.624830
  C       1.060737      2.097805      1.290769
  C       1.009329      3.187090      2.320377
  H       0.936357      4.162409      1.845721
  H       1.937760      3.172693      2.894450
  H       0.185721      3.044532      3.015074
  H       3.215598     -1.894707      1.114267
  H       1.829841     -2.895961     -0.993650
