! Opt PBEh-3c
%geom Constraints
{ B 0 20 2.0428571428571427 C }
{ B 24 30 1.3285714285714287 C }
    end
end
%output 
xyzfile=True 
end 
%scf 
maxiter 250 
end
%output
Print[P_Hirshfeld] = 1
end
% maxcore
4000
%pal nprocs 2
end
*xyz 1 1
Ir   0.61267563  -0.74200331   0.41380955 
C    0.15798705  -2.85614229   0.33898802 
C   -0.11117597  -2.41452106   1.68421086 
C    2.13110916  -2.05906185   1.23885150 
C    1.53606944  -2.66316597   0.08264017 
C    1.10317131  -1.94153971   2.22137067 
N   -1.07729351   0.10369327  -0.50715965 
C   -2.35001626   0.28282589   0.20738932 
C   -3.13963729   1.50420622  -0.24152962 
H   -3.97198641   1.65633141   0.44372801 
H   -3.57215494   1.38907378  -1.23630782 
H   -2.53248657   2.40961301  -0.22564514 
C   -3.17805540  -0.99190741   0.08911024 
H   -2.07139182   0.42659688   1.25249482 
H   -4.08206968  -0.90617876   0.69075678 
H   -3.48000284  -1.16905918  -0.94393334 
H   -2.63297669  -1.86784314   0.43720761 
C   -0.92969165   0.48056494  -1.72479048 
C    0.38526560   0.31430103  -2.26223665 
H   -1.74060209   0.92304191  -2.29411196 
C    1.40729061   0.01110394  -1.36147089 
C    2.62738394  -0.19877099  -2.07652684 
S    0.89463140   0.37069555  -3.88039891 
C    2.49394582  -0.03055551  -3.42226606 
H    1.63869504   1.17286328  -0.67086704 
H    3.57696505  -0.40919351  -1.60582599 
H    3.26388096  -0.10415179  -4.17530405 
H   -0.55111300  -3.30579454  -0.34053012 
H   -1.05524818  -2.47003184   2.20405348 
H    1.22264951  -1.49373249   3.19780216 
O    1.75786669   2.30065751   0.04825992 
O    0.59978523   1.04453957   1.47508729 
C    1.16778050   2.12311958   1.13982712 
C    1.15449719   3.25129486   2.12698050 
H    1.03181471   4.20527485   1.61918537 
H    2.11659148   3.28145495   2.64138825 
H    0.37411928   3.11970275   2.87088033 
H    3.17579401  -1.82982501   1.38096702 
H    2.04530283  -2.91828692  -0.83534429 
*
