39
Coordinates from ORCA-job reaction4-IEIP_ts_guess_scan_0-10_orca E -1288.392163141308
  Ir      0.563925     -0.741780      0.504206
  C       0.006845     -2.817168      0.363906
  C       0.087558     -2.380049      1.737138
  C       2.174444     -2.158297      0.793317
  C       1.272430     -2.650074     -0.224384
  C       1.457132     -2.032103      1.994612
  N      -1.040962      0.159989     -0.505299
  C      -2.320917      0.491501      0.142075
  C      -3.131136      1.535894     -0.608911
  H      -3.967828      1.846634      0.015231
  H      -3.560988      1.155267     -1.536826
  H      -2.545207      2.428119     -0.831934
  C      -3.124879     -0.782045      0.372943
  H      -2.040744      0.906586      1.111882
  H      -4.047017     -0.541187      0.899664
  H      -3.395561     -1.256513     -0.571283
  H      -2.585012     -1.504230      0.983848
  C      -0.825452      0.363847     -1.747663
  C       0.527015      0.160256     -2.218763
  H      -1.606536      0.713184     -2.417317
  C       1.635793      0.552653     -1.479615
  C       2.833659      0.159697     -2.141292
  S       0.940026     -0.605927     -3.692868
  C       2.611347     -0.462534     -3.330627
  H       1.542345      1.421500     -0.643223
  H       3.824213      0.380990     -1.770979
  H       3.343721     -0.829243     -4.034011
  H      -0.883352     -3.170109     -0.136637
  H      -0.703589     -2.418826      2.471692
  H       1.844576     -1.653909      2.929696
  O       1.334587      2.415353      0.257293
  O       0.538784      0.903138      1.693278
  C       0.926714      2.090887      1.373161
  C       0.883112      3.088875      2.494785
  H       0.840739      4.102657      2.106022
  H       1.795156      2.997018      3.087940
  H       0.043762      2.908941      3.163085
  H       3.219047     -1.924478      0.649658
  H       1.531621     -2.855324     -1.253058
39
Coordinates from ORCA-job reaction4-IEIP_ts_guess_scan_0-10_orca E -1288.392183779693
  Ir      0.563657     -0.741404      0.504886
  C       0.006524     -2.816837      0.364700
  C       0.086871     -2.379730      1.737974
  C       2.174089     -2.157957      0.794594
  C       1.272344     -2.649736     -0.223362
  C       1.456379     -2.031720      1.995739
  N      -1.040909      0.159636     -0.505295
  C      -2.321436      0.490276      0.141477
  C      -3.131541      1.534748     -0.609545
  H      -3.968649      1.845062      0.014261
  H      -3.560805      1.154380     -1.537830
  H      -2.545697      2.427176     -0.831970
  C      -3.125138     -0.783640      0.371231
  H      -2.042136      0.905013      1.111691
  H      -4.047740     -0.543383      0.897429
  H      -3.394975     -1.257772     -0.573401
  H      -2.585409     -1.505907      0.982150
  C      -0.825204      0.363470     -1.747882
  C       0.527040      0.159755     -2.219766
  H      -1.606550      0.712563     -2.417386
  C       1.636055      0.550324     -1.480411
  C       2.833295      0.157220     -2.143288
  S       0.938810     -0.602371     -3.696464
  C       2.610243     -0.462244     -3.333977
  H       1.542926      1.423221     -0.640488
  H       3.824211      0.376662     -1.772804
  H       3.342105     -0.828180     -4.038329
  H      -0.883546     -3.169789     -0.136062
  H      -0.704451     -2.418547      2.472327
  H       1.843588     -1.653554      2.930933
  O       1.336602      2.417515      0.259871
  O       0.539026      0.905641      1.694284
  C       0.928037      2.093078      1.375435
  C       0.885086      3.090921      2.497017
  H       0.842934      4.104813      2.108477
  H       1.797317      2.998656      3.089829
  H       0.045883      2.911022      3.165446
  H       3.218739     -1.924202      0.651222
  H       1.531793     -2.854989     -1.251973
39
Coordinates from ORCA-job reaction4-IEIP_ts_guess_scan_0-10_orca E -1288.392189597809
  Ir      0.563614     -0.741459      0.506557
  C       0.006221     -2.816600      0.366582
  C       0.085487     -2.379505      1.739846
  C       2.173598     -2.158032      0.798153
  C       1.272629     -2.649671     -0.220533
  C       1.454797     -2.031500      1.998648
  N      -1.040374      0.158918     -0.505200
  C      -2.321237      0.489334      0.141070
  C      -3.130772      1.534439     -0.609735
  H      -3.967980      1.844767      0.013931
  H      -3.559877      1.154679     -1.538337
  H      -2.544524      2.426739     -0.831595
  C      -3.125375     -0.784513      0.369659
  H      -2.042482      0.903486      1.111703
  H      -4.048290     -0.544344      0.895350
  H      -3.394647     -1.258127     -0.575395
  H      -2.586195     -1.507183      0.980574
  C      -0.824906      0.362352     -1.748051
  C       0.526927      0.159376     -2.220994
  H      -1.606818      0.710923     -2.417167
  C       1.636156      0.547025     -1.480768
  C       2.832895      0.156603     -2.146106
  S       0.937509     -0.599764     -3.699685
  C       2.609167     -0.457964     -3.339255
  H       1.543288      1.422297     -0.639111
  H       3.824106      0.375296     -1.775922
  H       3.340604     -0.820422     -4.045835
  H      -0.883475     -3.169452     -0.134913
  H      -0.706448     -2.418202      2.473534
  H       1.841255     -1.653257      2.934120
  O       1.338527      2.417335      0.260783
  O       0.538880      0.906032      1.694359
  C       0.928954      2.092840      1.376253
  C       0.886405      3.091085      2.497291
  H       0.843974      4.104866      2.108489
  H       1.798973      2.999103      3.089628
  H       0.047516      2.911165      3.166072
  H       3.218412     -1.924485      0.655667
  H       1.532876     -2.854990     -1.248927
39
Coordinates from ORCA-job reaction4-IEIP_ts_guess_scan_0-10_orca E -1288.392193689174
  Ir      0.563639     -0.741343      0.507714
  C       0.006171     -2.816236      0.368073
  C       0.084563     -2.379127      1.741302
  C       2.173381     -2.157811      0.800937
  C       1.273024     -2.649396     -0.218308
  C       1.453689     -2.031009      2.000895
  N      -1.040129      0.158095     -0.505266
  C      -2.321398      0.487476      0.140835
  C      -3.130510      1.533976     -0.608551
  H      -3.967769      1.843591      0.015404
  H      -3.559552      1.155816     -1.537831
  H      -2.543935      2.426423     -0.828941
  C      -3.125846     -0.786638      0.366839
  H      -2.043278      0.900017      1.112341
  H      -4.049135     -0.547218      0.892214
  H      -3.394436     -1.258752     -0.579161
  H      -2.587186     -1.510316      0.977012
  C      -0.825140      0.362045     -1.748226
  C       0.526302      0.161140     -2.222474
  H      -1.607858      0.710208     -2.416602
  C       1.635652      0.545448     -1.480993
  C       2.832084      0.155209     -2.146813
  S       0.936355     -0.590459     -3.705211
  C       2.607927     -0.456231     -3.341548
  H       1.543477      1.422022     -0.638574
  H       3.823546      0.370283     -1.775156
  H       3.339162     -0.818787     -4.048272
  H      -0.883202     -3.169072     -0.134007
  H      -0.707856     -2.417763      2.474462
  H       1.839540     -1.652670      2.936578
  O       1.340773      2.417985      0.260763
  O       0.539133      0.907246      1.693867
  C       0.930257      2.093392      1.376228
  C       0.888447      3.092164      2.496682
  H       0.845262      4.105762      2.107516
  H       1.801717      3.000800      3.088043
  H       0.050293      2.912105      3.166341
  H       3.218324     -1.924412      0.659159
  H       1.533882     -2.854776     -1.246531
39
Coordinates from ORCA-job reaction4-IEIP_ts_guess_scan_0-10_orca E -1288.392196702611
  Ir      0.563432     -0.741826      0.508470
  C       0.005582     -2.816556      0.368940
  C       0.083576     -2.379353      1.742148
  C       2.172801     -2.158601      0.802510
  C       1.272670     -2.650053     -0.217014
  C       1.452675     -2.031478      2.002182
  N      -1.039921      0.157455     -0.505038
  C      -2.321395      0.486402      0.140971
  C      -3.129979      1.534103     -0.607341
  H      -3.967177      1.843365      0.016871
  H      -3.559104      1.157224     -1.537103
  H      -2.542977      2.426537     -0.826640
  C      -3.126332     -0.787738      0.365140
  H      -2.043570      0.897714      1.113078
  H      -4.049812     -0.548658      0.890340
  H      -3.394592     -1.258702     -0.581526
  H      -2.588180     -1.512277      0.974741
  C      -0.825110      0.361483     -1.748013
  C       0.526173      0.161343     -2.222550
  H      -1.608219      0.708962     -2.416295
  C       1.635558      0.544522     -1.480462
  C       2.832077      0.155920     -2.146947
  S       0.936374     -0.589433     -3.705634
  C       2.607971     -0.453227     -3.342895
  H       1.543516      1.420955     -0.638802
  H       3.823508      0.371081     -1.775281
  H       3.339288     -0.813764     -4.050571
  H      -0.883672     -3.169245     -0.133455
  H      -0.709126     -2.417751      2.475016
  H       1.838284     -1.653164      2.937975
  O       1.341692      2.417690      0.259876
  O       0.539488      0.907887      1.693842
  C       0.930988      2.093663      1.375541
  C       0.889690      3.093233      2.495350
  H       0.845695      4.106517      2.105489
  H       1.803577      3.002759      3.085907
  H       0.052242      2.913272      3.165937
  H       3.217864     -1.925500      0.661117
  H       1.533814     -2.855570     -1.245133
39
Coordinates from ORCA-job reaction4-IEIP_ts_guess_scan_0-10_orca E -1288.392199287723
  Ir      0.563214     -0.742064      0.509778
  C       0.005935     -2.816751      0.369347
  C       0.082614     -2.379932      1.742726
  C       2.172675     -2.158572      0.805028
  C       1.273498     -2.649829     -0.215443
  C       1.451408     -2.031841      2.004058
  N      -1.039673      0.156542     -0.504532
  C      -2.321263      0.485254      0.141469
  C      -3.128650      1.534999     -0.605309
  H      -3.965542      1.844219      0.019339
  H      -3.558179      1.160120     -1.535694
  H      -2.540589      2.427081     -0.823169
  C      -3.127345     -0.788647      0.362993
  H      -2.043638      0.894693      1.114422
  H      -4.051025     -0.549732      0.887919
  H      -3.395267     -1.257881     -0.584626
  H      -2.590183     -1.514602      0.971783
  C      -0.825392      0.360124     -1.747688
  C       0.525622      0.160937     -2.222827
  H      -1.609195      0.706423     -2.415791
  C       1.635174      0.542830     -1.480184
  C       2.831748      0.156243     -2.147527
  S       0.935965     -0.587554     -3.706962
  C       2.607557     -0.450563     -3.344717
  H       1.543365      1.418955     -0.639030
  H       3.823182      0.371138     -1.775755
  H       3.338894     -0.809149     -4.053372
  H      -0.882766     -3.169484     -0.133995
  H      -0.710766     -2.418648      2.474842
  H       1.836129     -1.653763      2.940311
  O       1.342777      2.416639      0.258872
  O       0.539235      0.908265      1.693831
  C       0.931457      2.093494      1.374638
  C       0.890509      3.094165      2.493578
  H       0.844868      4.106979      2.102698
  H       1.805390      3.005398      3.082863
  H       0.054243      2.913997      3.165583
  H       3.217848     -1.925332      0.664696
  H       1.535537     -2.854961     -1.243410
