39
Coordinates from ORCA-job reaction4-IEIP_ts_guess_scan_4-10_orca E -1288.396878022668
  Ir      0.584595     -0.723197      0.474129
  C       0.032761     -2.805061      0.361951
  C       0.083929     -2.355521      1.730593
  C       2.190783     -2.133250      0.822110
  C       1.310648     -2.643083     -0.205217
  C       1.444069     -1.991904      2.006209
  N      -1.047395      0.152800     -0.514863
  C      -2.326011      0.454639      0.150126
  C      -3.128529      1.546874     -0.539494
  H      -3.959721      1.832239      0.103931
  H      -3.566300      1.222239     -1.484727
  H      -2.532825      2.442813     -0.716447
  C      -3.138817     -0.825102      0.305685
  H      -2.045304      0.810991      1.142657
  H      -4.059563     -0.610161      0.846061
  H      -3.411865     -1.241469     -0.664847
  H      -2.602385     -1.585437      0.871325
  C      -0.852182      0.372680     -1.755994
  C       0.492909      0.176243     -2.231652
  H      -1.642815      0.723122     -2.413393
  C       1.588800      0.427440     -1.414142
  C       2.793267      0.055022     -2.075126
  S       0.927080     -0.445540     -3.760540
  C       2.587615     -0.421973     -3.333251
  H       1.536740      1.341771     -0.597783
  H       3.778386      0.190026     -1.652600
  H       3.328229     -0.741286     -4.051035
  H      -0.844853     -3.168880     -0.152867
  H      -0.721041     -2.389369      2.449854
  H       1.810550     -1.597363      2.943077
  O       1.400190      2.405782      0.233524
  O       0.536595      0.936077      1.659185
  C       0.955006      2.107523      1.342744
  C       0.909259      3.125077      2.445866
  H       0.879366      4.132850      2.040687
  H       1.815616      3.035097      3.047965
  H       0.062244      2.962030      3.108530
  H       3.239868     -1.907250      0.702478
  H       1.590469     -2.868295     -1.223970
39
Coordinates from ORCA-job reaction4-IEIP_ts_guess_scan_4-10_orca E -1288.397033553581
  Ir      0.588354     -0.725727      0.475380
  C       0.030840     -2.807989      0.369235
  C       0.080113     -2.356310      1.736891
  C       2.189258     -2.140108      0.832351
  C       1.310240     -2.650595     -0.195441
  C       1.439938     -1.993974      2.014180
  N      -1.046981      0.151964     -0.516451
  C      -2.324645      0.453074      0.149273
  C      -3.127082      1.544733     -0.541251
  H      -3.959048      1.829880      0.101247
  H      -3.563541      1.219496     -1.486917
  H      -2.531648      2.440913     -0.717935
  C      -3.136190     -0.827394      0.304804
  H      -2.043518      0.809342      1.141712
  H      -4.056600     -0.613570      0.846153
  H      -3.409763     -1.243436     -0.665721
  H      -2.598314     -1.587502      0.869447
  C      -0.854162      0.374840     -1.760662
  C       0.491659      0.184621     -2.242264
  H      -1.646567      0.728710     -2.414147
  C       1.585119      0.422543     -1.418266
  C       2.790440      0.054467     -2.081177
  S       0.926560     -0.426929     -3.774810
  C       2.586743     -0.408758     -3.344674
  H       1.535134      1.343584     -0.598675
  H       3.775033      0.184616     -1.655790
  H       3.328411     -0.721021     -4.064380
  H      -0.846375     -3.171407     -0.146548
  H      -0.726171     -2.387666      2.454698
  H       1.805142     -1.598038      2.950945
  O       1.403187      2.409191      0.231329
  O       0.537623      0.936858      1.660245
  C       0.958375      2.108436      1.343203
  C       0.911936      3.126280      2.445856
  H       0.881072      4.134033      2.040554
  H       1.818504      3.037138      3.047700
  H       0.065155      2.962517      3.108566
  H       3.239309     -1.917802      0.714875
  H       1.591829     -2.879820     -1.212796
39
Coordinates from ORCA-job reaction4-IEIP_ts_guess_scan_4-10_orca E -1288.397097710346
  Ir      0.587479     -0.725986      0.476901
  C       0.026645     -2.808485      0.378132
  C       0.071294     -2.353742      1.744256
  C       2.183857     -2.141596      0.846172
  C       1.308248     -2.654700     -0.182682
  C       1.429587     -1.990584      2.024570
  N      -1.044574      0.148081     -0.516423
  C      -2.322584      0.446947      0.149267
  C      -3.125848      1.539746     -0.538597
  H      -3.958442      1.822632      0.104118
  H      -3.561510      1.216423     -1.485251
  H      -2.531090      2.436858     -0.712765
  C      -3.133527     -0.834302      0.301929
  H      -2.041768      0.800779      1.142686
  H      -4.053759     -0.622554      0.844461
  H      -3.407386     -1.247863     -0.669556
  H      -2.594606     -1.595450      0.864040
  C      -0.852717      0.376089     -1.761528
  C       0.492653      0.191074     -2.250427
  H      -1.646677      0.733983     -2.410552
  C       1.585984      0.412154     -1.421937
  C       2.790792      0.051795     -2.090757
  S       0.926232     -0.388414     -3.795007
  C       2.586085     -0.390527     -3.361471
  H       1.540175      1.340321     -0.599004
  H       3.775618      0.170976     -1.662618
  H       3.327035     -0.694122     -4.085554
  H      -0.849020     -3.172720     -0.139652
  H      -0.737427     -2.382563      2.459315
  H       1.791522     -1.591688      2.961347
  O       1.414972      2.407931      0.229471
  O       0.532844      0.939176      1.657332
  C       0.962320      2.107601      1.340900
  C       0.917327      3.126786      2.441728
  H       0.893080      4.134340      2.035454
  H       1.821294      3.033556      3.046878
  H       0.067212      2.967649      3.101178
  H       3.234851     -1.921964      0.732413
  H       1.593196     -2.888447     -1.198027
39
Coordinates from ORCA-job reaction4-IEIP_ts_guess_scan_4-10_orca E -1288.397123783185
  Ir      0.587665     -0.729062      0.481335
  C       0.023995     -2.811366      0.389790
  C       0.063349     -2.352528      1.754227
  C       2.180125     -2.145772      0.863726
  C       1.308208     -2.661582     -0.166643
  C       1.420399     -1.989184      2.038201
  N      -1.042534      0.143812     -0.516991
  C      -2.322011      0.440278      0.147810
  C      -3.124085      1.537093     -0.535087
  H      -3.957342      1.816962      0.108082
  H      -3.558861      1.218900     -1.483855
  H      -2.528745      2.434851     -0.703821
  C      -3.135083     -0.840627      0.293101
  H      -2.042811      0.788953      1.143513
  H      -4.055869     -0.630330      0.835288
  H      -3.407995     -1.249064     -0.680810
  H      -2.598034     -1.605132      0.852182
  C      -0.851653      0.376571     -1.761413
  C       0.491564      0.194419     -2.255695
  H      -1.647471      0.735719     -2.407272
  C       1.585387      0.399336     -1.423718
  C       2.789701      0.051972     -2.100096
  S       0.922529     -0.364451     -3.807884
  C       2.584105     -0.360948     -3.380581
  H       1.543519      1.332470     -0.599741
  H       3.774935      0.164446     -1.671130
  H       3.324666     -0.646437     -4.112365
  H      -0.849887     -3.176464     -0.130378
  H      -0.748300     -2.377926      2.466050
  H       1.778783     -1.586972      2.974947
  O       1.425094      2.402581      0.226501
  O       0.531819      0.941065      1.655786
  C       0.967690      2.105538      1.337766
  C       0.926342      3.128459      2.434866
  H       0.906903      4.134902      2.025657
  H       1.829385      3.033075      3.041095
  H       0.074841      2.974768      3.093812
  H       3.232148     -1.928976      0.754243
  H       1.596901     -2.900159     -1.179757
39
Coordinates from ORCA-job reaction4-IEIP_ts_guess_scan_4-10_orca E -1288.397135976819
  Ir      0.588443     -0.730988      0.484374
  C       0.025376     -2.813408      0.396818
  C       0.060006     -2.351568      1.760208
  C       2.180101     -2.146757      0.876047
  C       1.311581     -2.665056     -0.155962
  C       1.415957     -1.987094      2.047426
  N      -1.042269      0.141097     -0.518290
  C      -2.323224      0.433755      0.146460
  C      -3.124106      1.535726     -0.529553
  H      -3.957724      1.811470      0.114890
  H      -3.558422      1.224343     -1.480781
  H      -2.528209      2.434350     -0.691567
  C      -3.138086     -0.847224      0.281671
  H      -2.045905      0.775611      1.145049
  H      -4.059704     -0.639407      0.823368
  H      -3.409514     -1.248903     -0.695469
  H      -2.603189     -1.616103      0.836695
  C      -0.852635      0.379068     -1.761356
  C       0.488495      0.200937     -2.258992
  H      -1.650332      0.738782     -2.404681
  C       1.582938      0.393145     -1.424883
  C       2.786448      0.049430     -2.103653
  S       0.919100     -0.332340     -3.819792
  C       2.579658     -0.348171     -3.388994
  H       1.545570      1.327562     -0.600480
  H       3.771657      0.149722     -1.671717
  H       3.319346     -0.630417     -4.122905
  H      -0.846620     -3.179895     -0.125552
  H      -0.754062     -2.375104      2.469329
  H       1.771163     -1.582273      2.984287
  O       1.433044      2.399269      0.224515
  O       0.532800      0.944209      1.654402
  C       0.972985      2.105593      1.335328
  C       0.934567      3.131952      2.429435
  H       0.917831      4.137342      2.017623
  H       1.837442      3.035738      3.035795
  H       0.082704      2.982265      3.088900
  H       3.232684     -1.930949      0.770190
  H       1.603476     -2.906521     -1.167441
39
Coordinates from ORCA-job reaction4-IEIP_ts_guess_scan_4-10_orca E -1288.397146246042
  Ir      0.586803     -0.731063      0.485720
  C       0.026117     -2.813362      0.396220
  C       0.056635     -2.351386      1.759775
  C       2.179134     -2.144901      0.881420
  C       1.313805     -2.663861     -0.153004
  C       1.411584     -1.985801      2.050675
  N      -1.041432      0.140142     -0.517362
  C      -2.322436      0.431354      0.148122
  C      -3.122233      1.536810     -0.523632
  H      -3.955207      1.810977      0.122311
  H      -3.557438      1.229518     -1.475775
  H      -2.525405      2.435353     -0.682575
  C      -3.138126     -0.849652      0.277696
  H      -2.045426      0.769129      1.148182
  H      -4.059939     -0.643376      0.819639
  H      -3.409205     -1.247299     -0.701191
  H      -2.604099     -1.621293      0.829918
  C      -0.852317      0.378466     -1.760134
  C       0.487857      0.200482     -2.258475
  H      -1.650848      0.737108     -2.403221
  C       1.583583      0.388706     -1.424909
  C       2.786468      0.048519     -2.105939
  S       0.917581     -0.326281     -3.821818
  C       2.578097     -0.344954     -3.392522
  H       1.547904      1.322359     -0.600685
  H       3.772115      0.146638     -1.674587
  H       3.316937     -0.624622     -4.128292
  H      -0.844010     -3.180569     -0.128761
  H      -0.759505     -2.375112      2.466514
  H       1.763919     -1.580417      2.988385
  O       1.436978      2.395048      0.223251
  O       0.531622      0.944829      1.653213
  C       0.974281      2.104714      1.333362
  C       0.935305      3.133745      2.425421
  H       0.919644      4.138218      2.011380
  H       1.837486      3.038270      3.032921
  H       0.082715      2.986165      3.084453
  H       3.231882     -1.928387      0.778762
  H       1.608546     -2.905026     -1.163717
39
Coordinates from ORCA-job reaction4-IEIP_ts_guess_scan_4-10_orca E -1288.397152574336
  Ir      0.586346     -0.731470      0.487187
  C       0.028458     -2.814080      0.395207
  C       0.053424     -2.351907      1.758980
  C       2.179173     -2.143361      0.888711
  C       1.318126     -2.663148     -0.148962
  C       1.407011     -1.985045      2.055005
  N      -1.040913      0.139246     -0.516387
  C      -2.321838      0.428704      0.150159
  C      -3.119619      1.538833     -0.516417
  H      -3.951991      1.811400      0.131005
  H      -3.555505      1.236827     -1.469914
  H      -2.521091      2.436928     -0.671253
  C      -3.139070     -0.852054      0.272204
  H      -2.045192      0.761028      1.152101
  H      -4.061110     -0.647710      0.814546
  H      -3.409824     -1.244164     -0.709001
  H      -2.606364     -1.627429      0.820477
  C      -0.853140      0.377739     -1.759412
  C       0.486133      0.200819     -2.259051
  H      -1.652928      0.735087     -2.401694
  C       1.582817      0.384629     -1.425750
  C       2.785024      0.045873     -2.107970
  S       0.915221     -0.320204     -3.824711
  C       2.575519     -0.341431     -3.396529
  H       1.549465      1.317777     -0.601195
  H       3.770979      0.141046     -1.676729
  H       3.313752     -0.618249     -4.133998
  H      -0.839086     -3.182377     -0.133265
  H      -0.765472     -2.376089      2.462522
  H       1.755435     -1.579118      2.993949
  O       1.440755      2.391867      0.221209
  O       0.531660      0.945905      1.652409
  C       0.975793      2.104815      1.331004
  C       0.936214      3.136309      2.420954
  H       0.919988      4.139797      2.004566
  H       1.838481      3.042668      3.028601
  H       0.083761      2.989815      3.080383
  H       3.232177     -1.926100      0.790401
  H       1.616802     -2.903983     -1.158599
39
Coordinates from ORCA-job reaction4-IEIP_ts_guess_scan_4-10_orca E -1288.397160117329
  Ir      0.586837     -0.732145      0.489201
  C       0.032970     -2.815635      0.392871
  C       0.048233     -2.353310      1.756985
  C       2.179670     -2.141532      0.901192
  C       1.326108     -2.662495     -0.142156
  C       1.399335     -1.984660      2.062206
  N      -1.039980      0.138137     -0.514365
  C      -2.320725      0.424942      0.153806
  C      -3.114771      1.542960     -0.504268
  H      -3.946368      1.813196      0.145156
  H      -3.551343      1.249740     -1.460139
  H      -2.513018      2.440027     -0.652127
  C      -3.140817     -0.855132      0.263277
  H      -2.044584      0.747963      1.158839
  H      -4.062963     -0.654149      0.806768
  H      -3.411519     -1.237547     -0.721759
  H      -2.610049     -1.636909      0.804296
  C      -0.854691      0.376384     -1.758096
  C       0.483343      0.200765     -2.260157
  H      -1.656531      0.731857     -2.398843
  C       1.581525      0.378903     -1.427600
  C       2.782549      0.042996     -2.112514
  S       0.910676     -0.313800     -3.828835
  C       2.570820     -0.337806     -3.403001
  H       1.551557      1.311584     -0.601936
  H       3.769233      0.135601     -1.682454
  H       3.307955     -0.610996     -4.142936
  H      -0.830069     -3.185742     -0.141662
  H      -0.775428     -2.378493      2.454926
  H       1.740825     -1.578140      3.003450
  O       1.446182      2.388119      0.217702
  O       0.532970      0.947468      1.651470
  C       0.978355      2.105399      1.327333
  C       0.936506      3.140336      2.413935
  H       0.917362      4.142306      1.993980
  H       1.839453      3.051154      3.021207
  H       0.084853      2.993834      3.074331
  H       3.233150     -1.923322      0.810536
  H       1.631757     -2.902666     -1.149879
39
Coordinates from ORCA-job reaction4-IEIP_ts_guess_scan_4-10_orca E -1288.397166882156
  Ir      0.588394     -0.732503      0.490704
  C       0.039069     -2.817375      0.389091
  C       0.042211     -2.354979      1.753486
  C       2.180602     -2.139190      0.915911
  C       1.336467     -2.661623     -0.134365
  C       1.389954     -1.984237      2.070253
  N      -1.038995      0.137037     -0.511720
  C      -2.319504      0.420866      0.158243
  C      -3.109094      1.548057     -0.489788
  H      -3.940047      1.815601      0.161574
  H      -3.546003      1.265089     -1.448534
  H      -2.503435      2.443791     -0.629283
  C      -3.142996     -0.858211      0.253103
  H      -2.043824      0.732781      1.166816
  H      -4.064759     -0.661560      0.798868
  H      -3.414508     -1.228619     -0.736296
  H      -2.613827     -1.647649      0.784525
  C      -0.856758      0.374740     -1.756326
  C       0.480044      0.200336     -2.261497
  H      -1.660882      0.728589     -2.395094
  C       1.579921      0.373949     -1.430389
  C       2.779413      0.039346     -2.118083
  S       0.904726     -0.308702     -3.833073
  C       2.564999     -0.335580     -3.410086
  H       1.553784      1.305962     -0.602768
  H       3.766993      0.129354     -1.689572
  H       3.300777     -0.606321     -4.152278
  H      -0.818358     -3.189775     -0.152805
  H      -0.787254     -2.381714      2.444478
  H       1.722612     -1.577122      3.014419
  O       1.452333      2.385300      0.213671
  O       0.535430      0.949328      1.650102
  C       0.981413      2.106533      1.323077
  C       0.936232      3.144766      2.406199
  H       0.912344      4.145181      1.982701
  H       1.840432      3.061625      3.012432
  H       0.085988      2.996829      3.068005
  H       3.234613     -1.919955      0.834714
  H       1.650862     -2.900755     -1.139673
39
Coordinates from ORCA-job reaction4-IEIP_ts_guess_scan_4-10_orca E -1288.397172485168
  Ir      0.591057     -0.732953      0.491816
  C       0.046979     -2.819667      0.384120
  C       0.035119     -2.357218      1.748620
  C       2.181896     -2.136544      0.933607
  C       1.349558     -2.660983     -0.124973
  C       1.378360     -1.983842      2.079561
  N      -1.038031      0.135504     -0.508555
  C      -2.318284      0.416368      0.163247
  C      -3.102521      1.554021     -0.473178
  H      -3.933065      1.818441      0.179949
  H      -3.539292      1.282893     -1.435346
  H      -2.492309      2.448121     -0.602739
  C      -3.146063     -0.861098      0.241655
  H      -2.043017      0.715433      1.175742
  H      -4.066659     -0.669550      0.791202
  H      -3.419755     -1.216927     -0.752497
  H      -2.618208     -1.659587      0.760764
  C      -0.859132      0.372816     -1.753897
  C       0.476346      0.199181     -2.262856
  H      -1.665527      0.725763     -2.390310
  C       1.578217      0.369346     -1.433908
  C       2.775835      0.036459     -2.125584
  S       0.896933     -0.305277     -3.837213
  C       2.557936     -0.334394     -3.418229
  H       1.556006      1.300390     -0.603624
  H       3.764599      0.124859     -1.699494
  H       3.291952     -0.603270     -4.162837
  H      -0.803561     -3.194902     -0.166569
  H      -0.801323     -2.386089      2.431080
  H       1.699895     -1.575890      3.027247
  O       1.459233      2.382903      0.209172
  O       0.538989      0.951265      1.648264
  C       0.985045      2.107748      1.318288
  C       0.935817      3.149494      2.397598
  H       0.905395      4.148218      1.970437
  H       1.841961      3.074093      3.001916
  H       0.087758      2.998980      3.061537
  H       3.236471     -1.916251      0.863954
  H       1.674762     -2.898668     -1.127226
39
Coordinates from ORCA-job reaction4-IEIP_ts_guess_scan_4-10_orca E -1288.397174519751
  Ir      0.593252     -0.733131      0.492041
  C       0.053335     -2.821226      0.379788
  C       0.029373     -2.358859      1.744194
  C       2.182682     -2.134130      0.947281
  C       1.360024     -2.660429     -0.117772
  C       1.368669     -1.983087      2.086353
  N      -1.037677      0.134049     -0.506425
  C      -2.317757      0.412979      0.166601
  C      -3.098489      1.557651     -0.461602
  H      -3.929117      1.819385      0.192466
  H      -3.534697      1.294838     -1.426302
  H      -2.485512      2.450882     -0.583821
  C      -3.148475     -0.863244      0.233923
  H      -2.042684      0.703188      1.181694
  H      -4.067431     -0.675649      0.787533
  H      -3.425080     -1.208120     -0.763289
  H      -2.620730     -1.668278      0.743018
  C      -0.860869      0.371742     -1.751930
  C       0.473697      0.198335     -2.263820
  H      -1.668473      0.725114     -2.386633
  C       1.577009      0.366919     -1.436707
  C       2.773159      0.034485     -2.131414
  S       0.890618     -0.303111     -3.839965
  C       2.552654     -0.333919     -3.424170
  H       1.557495      1.296911     -0.604227
  H       3.762758      0.121537     -1.706974
  H       3.285245     -0.602134     -4.170400
  H      -0.791757     -3.198658     -0.177723
  H      -0.812508     -2.389615      2.419858
  H       1.681084     -1.574228      3.036727
  O       1.464864      2.381565      0.206193
  O       0.541736      0.952748      1.646444
  C       0.988226      2.108442      1.314971
  C       0.936677      3.152664      2.391701
  H       0.901339      4.150240      1.962177
  H       1.844609      3.082928      2.994014
  H       0.090612      3.000234      3.057701
  H       3.237629     -1.913107      0.886780
  H       1.693880     -2.896722     -1.117543
39
Coordinates from ORCA-job reaction4-IEIP_ts_guess_scan_4-10_orca E -1288.397174574253
  Ir      0.594237     -0.733274      0.492032
  C       0.057254     -2.822051      0.376879
  C       0.025457     -2.359941      1.741214
  C       2.182843     -2.132302      0.955870
  C       1.366570     -2.659953     -0.113312
  C       1.362055     -1.982280      2.090441
  N      -1.037891      0.132903     -0.505567
  C      -2.317876      0.410917      0.168101
  C      -3.097167      1.558805     -0.455972
  H      -3.928125      1.818592      0.198441
  H      -3.532794      1.300226     -1.422070
  H      -2.483335      2.451990     -0.574144
  C      -3.149975     -0.864687      0.230222
  H      -2.042850      0.696998      1.184380
  H      -4.067490     -0.679274      0.786922
  H      -3.429074     -1.203600     -0.768339
  H      -2.621794     -1.673198      0.733355
  C      -0.861857      0.371494     -1.750838
  C       0.472202      0.197974     -2.264320
  H      -1.669723      0.725827     -2.384732
  C       1.576325      0.365650     -1.438208
  C       2.771642      0.033895     -2.134958
  S       0.886746     -0.301593     -3.841408
  C       2.549649     -0.333358     -3.427631
  H       1.558126      1.294857     -0.604594
  H       3.761672      0.120248     -1.711368
  H       3.281322     -0.601052     -4.174924
  H      -0.784402     -3.200764     -0.184941
  H      -0.819845     -2.391995      2.412538
  H       1.668542     -1.572649      3.042438
  O       1.468636      2.380574      0.204756
  O       0.542989      0.953686      1.645148
  C       0.990551      2.108544      1.313289
  C       0.938972      3.154230      2.388694
  H       0.901177      4.151173      1.957903
  H       1.848271      3.087236      2.989270
  H       0.094407      3.001278      3.056467
  H       3.237987     -1.910813      0.901213
  H       1.705936     -2.895122     -1.111507
39
Coordinates from ORCA-job reaction4-IEIP_ts_guess_scan_4-10_orca E -1288.397174370385
  Ir      0.594263     -0.733294      0.491988
  C       0.059312     -2.822322      0.374984
  C       0.023046     -2.360574      1.739360
  C       2.182668     -2.130870      0.960503
  C       1.370091     -2.659330     -0.111059
  C       1.358085     -1.981587      2.092534
  N      -1.038300      0.132297     -0.505462
  C      -2.318188      0.409887      0.168585
  C      -3.097360      1.558641     -0.453985
  H      -3.928603      1.817175      0.200573
  H      -3.532650      1.301618     -1.420647
  H      -2.483726      2.452182     -0.570469
  C      -3.150547     -0.865625      0.229101
  H      -2.043098      0.694799      1.185181
  H      -4.067161     -0.681196      0.787602
  H      -3.431179     -1.202161     -0.769827
  H      -2.621841     -1.675489      0.729514
  C      -0.862448      0.371648     -1.750510
  C       0.471378      0.198066     -2.264634
  H      -1.670232      0.726694     -2.384144
  C       1.575844      0.364989     -1.438875
  C       2.770799      0.033424     -2.136406
  S       0.884943     -0.300219     -3.842202
  C       2.548254     -0.332739     -3.429238
  H       1.558247      1.293765     -0.604887
  H       3.760936      0.119075     -1.712917
  H       3.279470     -0.600040     -4.177107
  H      -0.780400     -3.201676     -0.189310
  H      -0.824169     -2.393437      2.408229
  H       1.661228     -1.571489      3.045414
  O       1.470915      2.379878      0.204167
  O       0.543166      0.954307      1.644310
  C       0.992109      2.108489      1.312574
  C       0.941541      3.154806      2.387513
  H       0.902817      4.151466      1.956149
  H       1.851760      3.088656      2.986792
  H       0.097979      3.002035      3.056592
  H       3.237890     -1.909006      0.909165
  H       1.712530     -2.893654     -1.108410
