39
Generated by autodE on: 2023-08-14. E = -1288.398515 Ha
Ir    0.60172  -0.72977   0.48010
C     0.07768  -2.82359   0.36193
C     0.01623  -2.36204   1.72521
C     2.18777  -2.11897   0.98128
C     1.39638  -2.65567  -0.10135
C     1.34102  -1.97205   2.09852
N    -1.04047   0.13159  -0.50673
C    -2.31712   0.40334   0.17518
C    -3.09414   1.56420  -0.42767
H    -3.92352   1.81454   0.23240
H    -3.53157   1.32382  -1.39760
H    -2.47801   2.45763  -0.53099
C    -3.15297  -0.87068   0.21714
H    -2.03847   0.67175   1.19518
H    -4.06512  -0.69479   0.78564
H    -3.44143  -1.18690  -0.78617
H    -2.62271  -1.69182   0.69717
C    -0.87146   0.37699  -1.75158
C     0.46042   0.20020  -2.26843
H    -1.68059   0.73787  -2.38000
C     1.56025   0.33248  -1.42896
C     2.75724   0.00453  -2.12610
S     0.87938  -0.26944  -3.85126
C     2.53970  -0.32994  -3.42812
H     1.55489   1.27223  -0.61215
H     3.74516   0.07021  -1.69399
H     3.27289  -0.58831  -4.17715
H    -0.74980  -3.20969  -0.21566
H    -0.84168  -2.39845   2.38002
H     1.62514  -1.55695   3.05515
O     1.47866   2.38125   0.19102
O     0.54551   0.96056   1.63146
C     0.99701   2.11329   1.29898
C     0.94595   3.16228   2.37149
H     0.90417   4.15773   1.93758
H     1.85754   3.09980   2.96903
H     0.10390   3.00940   3.04238
H     3.24346  -1.89613   0.94998
H     1.75640  -2.89130  -1.09218
