! Opt PBEh-3c
%geom Constraints
{ B 0 20 2.4714285714285715 C }
{ B 24 30 1.3285714285714287 C }
    end
end
%output 
xyzfile=True 
end 
%scf 
maxiter 250 
end
%output
Print[P_Hirshfeld] = 1
end
% maxcore
4000
*xyz 1 1
Ir   0.57801485  -0.73832003   0.51016002 
C    0.02831722  -2.81908194   0.38667498 
C    0.04636319  -2.36503959   1.75494164 
C    2.17547092  -2.14824738   0.89974287 
C    1.31963564  -2.65858283  -0.14771032 
C    1.39999019  -2.00428941   2.06430776 
N   -1.03732557   0.13750460  -0.50370216 
C   -2.32120329   0.43493833   0.15449692 
C   -3.10688564   1.54914415  -0.51964071 
H   -3.94093127   1.83038576   0.12190818 
H   -3.53927346   1.24750507  -1.47478744 
H   -2.49989283   2.44156568  -0.67402197 
C   -3.14555466  -0.84154170   0.27222280 
H   -2.04971732   0.76700538   1.15790569 
H   -4.06874745  -0.63373509   0.81125597 
H   -3.41434069  -1.23127257  -0.71050743 
H   -2.61839417  -1.62036374   0.82127868 
C   -0.84539309   0.35783940  -1.74935694 
C    0.49505348   0.18189021  -2.25039244 
H   -1.64643012   0.70145360  -2.39800206 
C    1.60449991   0.44327260  -1.45752896 
C    2.79903798   0.09611177  -2.14729640 
S    0.90450520  -0.41176175  -3.79957193 
C    2.57284217  -0.36727213  -3.40782291 
H    1.55196503   1.34887948  -0.60704812 
H    3.79127240   0.23895785  -1.74448668 
H    3.30302689  -0.66642543  -4.14463929 
H   -0.83611920  -3.18468348  -0.14868029 
H   -0.77621230  -2.39685220   2.45416176 
H    1.74314394  -1.60847181   3.00947098 
O    1.42297787   2.39142364   0.22945011 
O    0.53897600   0.93731850   1.67091806 
C    0.96990441   2.10145145   1.34237600 
C    0.92855352   3.13191503   2.43296699 
H    0.87685607   4.13402693   2.01583802 
H    1.84809448   3.06390772   3.01775329 
H    0.09643575   2.96482395   3.11294676 
H    3.22736740  -1.92366401   0.80506667 
H    1.62348654  -2.88252602  -1.15990799 
*
