39
Coordinates from ORCA-job reaction4-IEIP_ts_guess_scan_9-9_orca E -1288.401664490724
  Ir      0.610795     -0.718171      0.443693
  C       0.116050     -2.824868      0.337697
  C      -0.021760     -2.362747      1.694180
  C       2.183489     -2.080883      1.054579
  C       1.457823     -2.645459     -0.055926
  C       1.269367     -1.937680      2.125235
  N      -1.057909      0.129824     -0.514457
  C      -2.332338      0.362426      0.184267
  C      -3.125085      1.540069     -0.364490
  H      -3.953921      1.751196      0.309638
  H      -3.564288      1.337184     -1.342173
  H      -2.519860      2.444358     -0.431339
  C      -3.157730     -0.919401      0.172874
  H      -2.051871      0.590558      1.213514
  H      -4.066223     -0.779780      0.757259
  H      -3.452558     -1.188667     -0.842205
  H      -2.616334     -1.759091      0.605696
  C      -0.901605      0.424134     -1.746074
  C       0.421842      0.246297     -2.259494
  H      -1.709911      0.816304     -2.355869
  C       1.491836      0.196059     -1.370422
  C       2.695292     -0.098285     -2.077160
  S       0.869912     -0.033099     -3.874758
  C       2.507456     -0.240587     -3.418329
  H       1.584364      1.172828     -0.569683
  H       3.670638     -0.143232     -1.614825
  H       3.252742     -0.434634     -4.174745
  H      -0.671970     -3.233349     -0.278236
  H      -0.910832     -2.407794      2.304902
  H       1.495752     -1.505487      3.089780
  O       1.649897      2.325351      0.170730
  O       0.541023      0.999495      1.571704
  C       1.077925      2.113474      1.251331
  C       1.020889      3.199085      2.286045
  H       0.988343      4.178347      1.815184
  H       1.928421      3.156499      2.891066
  H       0.171204      3.074362      2.952360
  H       3.238405     -1.855339      1.083120
  H       1.870100     -2.890104     -1.023929
39
Coordinates from ORCA-job reaction4-IEIP_ts_guess_scan_9-9_orca E -1288.401604710771
  Ir      0.609415     -0.710445      0.438915
  C       0.120347     -2.820766      0.336546
  C      -0.018276     -2.359598      1.693174
  C       2.185028     -2.069992      1.052979
  C       1.461463     -2.637836     -0.057104
  C       1.270300     -1.929281      2.123138
  N      -1.065048      0.129907     -0.516579
  C      -2.338958      0.362164      0.183352
  C      -3.134728      1.536243     -0.368687
  H      -3.963515      1.747746      0.305350
  H      -3.574133      1.329099     -1.345395
  H      -2.531626      2.441711     -0.439045
  C      -3.161762     -0.921315      0.177250
  H      -2.057883      0.594361      1.211539
  H      -4.069885     -0.781659      0.762196
  H      -3.457237     -1.194583     -0.836584
  H      -2.618163     -1.758454      0.612240
  C      -0.908304      0.419794     -1.754027
  C       0.418182      0.242970     -2.270537
  H      -1.717996      0.807525     -2.364788
  C       1.487462      0.196954     -1.380075
  C       2.691836     -0.100672     -2.084231
  S       0.868196     -0.042323     -3.884194
  C       2.505364     -0.249342     -3.424852
  H       1.585167      1.199552     -0.598642
  H       3.666982     -0.142001     -1.620951
  H       3.251593     -0.446991     -4.179305
  H      -0.666324     -3.232482     -0.278995
  H      -0.906748     -2.407927      2.304412
  H       1.495278     -1.496247      3.087633
  O       1.721741      2.293727      0.216800
  O       0.526253      1.006048      1.573501
  C       1.098989      2.106183      1.273874
  C       1.025162      3.199071      2.299468
  H       1.034868      4.176033      1.822729
  H       1.905997      3.139134      2.941359
  H       0.146218      3.097955      2.930776
  H       3.239429     -1.842165      1.082108
  H       1.874688     -2.882904     -1.024608
39
Coordinates from ORCA-job reaction4-IEIP_ts_guess_scan_9-9_orca E -1288.400733082305
  Ir      0.619882     -0.716670      0.439203
  C       0.121595     -2.828669      0.331388
  C      -0.013886     -2.376793      1.691291
  C       2.188079     -2.088599      1.050110
  C       1.462938     -2.648719     -0.062440
  C       1.273674     -1.951065      2.120831
  N      -1.054539      0.135858     -0.504489
  C      -2.326947      0.369943      0.197144
  C      -3.114563      1.553487     -0.346353
  H      -3.943301      1.764325      0.327889
  H      -3.553176      1.357110     -1.325664
  H      -2.505977      2.455950     -0.408097
  C      -3.157782     -0.908159      0.179361
  H      -2.045410      0.591590      1.227536
  H      -4.065533     -0.767982      0.764744
  H      -3.454166     -1.170819     -0.837031
  H      -2.619787     -1.752398      0.607530
  C      -0.889655      0.438275     -1.747693
  C       0.441389      0.255934     -2.272903
  H      -1.696637      0.836860     -2.354950
  C       1.508716      0.178287     -1.380711
  C       2.708439     -0.139277     -2.085099
  S       0.889965     -0.021280     -3.888222
  C       2.521886     -0.269993     -3.427352
  H       1.648730      1.209188     -0.614433
  H       3.681923     -0.203763     -1.620603
  H       3.265698     -0.476294     -4.181711
  H      -0.666620     -3.235364     -0.285580
  H      -0.901384     -2.426934      2.303559
  H       1.500469     -1.524607      3.087813
  O       1.526430      2.343774      0.146207
  O       0.529748      0.996700      1.594558
  C       1.021868      2.122947      1.259640
  C       0.984405      3.210050      2.292276
  H       0.896455      4.186163      1.821679
  H       1.923043      3.198564      2.849299
  H       0.174597      3.060417      3.001345
  H       3.243621     -1.866526      1.081422
  H       1.875180     -2.892323     -1.030756
39
Coordinates from ORCA-job reaction4-IEIP_ts_guess_scan_9-9_orca E -1288.401960119299
  Ir      0.610567     -0.719083      0.442401
  C       0.110122     -2.828167      0.347027
  C      -0.022876     -2.366413      1.703792
  C       2.179537     -2.086051      1.057180
  C       1.451265     -2.652107     -0.050519
  C       1.267315     -1.940092      2.129128
  N      -1.060923      0.127995     -0.510922
  C      -2.335533      0.358536      0.186722
  C      -3.127101      1.537424     -0.361054
  H      -3.958035      1.746473      0.311122
  H      -3.563032      1.336850     -1.340688
  H      -2.522034      2.442123     -0.423786
  C      -3.160563     -0.923421      0.170498
  H      -2.056594      0.583803      1.216956
  H      -4.069931     -0.785769      0.753991
  H      -3.453889     -1.189867     -0.845755
  H      -2.619443     -1.764140      0.601714
  C      -0.900683      0.427207     -1.747846
  C       0.427255      0.254054     -2.267596
  H      -1.709330      0.822118     -2.355221
  C       1.494256      0.185179     -1.375418
  C       2.699993     -0.106448     -2.080523
  S       0.880125     -0.010112     -3.883675
  C       2.516687     -0.228039     -3.424338
  H       1.599771      1.186954     -0.582050
  H       3.673635     -0.159628     -1.615240
  H       3.264309     -0.414006     -4.180422
  H      -0.679876     -3.237204     -0.266032
  H      -0.909922     -2.410375      2.317345
  H       1.496356     -1.506945      3.092604
  O       1.636484      2.338942      0.161182
  O       0.543339      1.003853      1.570409
  C       1.074898      2.119179      1.247960
  C       1.024252      3.202846      2.283753
  H       0.980305      4.182596      1.814764
  H       1.939257      3.164883      2.877702
  H       0.183124      3.071576      2.959390
  H       3.235205     -1.864080      1.084542
  H       1.861074     -2.901454     -1.018358
39
Coordinates from ORCA-job reaction4-IEIP_ts_guess_scan_9-9_orca E -1288.402011831642
  Ir      0.611314     -0.717753      0.442286
  C       0.110665     -2.826339      0.348374
  C      -0.023489     -2.364518      1.704780
  C       2.179539     -2.084328      1.060007
  C       1.452334     -2.650873     -0.047956
  C       1.266238     -1.937912      2.130932
  N      -1.059785      0.127904     -0.512498
  C      -2.334488      0.357816      0.185297
  C      -3.127684      1.535761     -0.362233
  H      -3.958358      1.744232      0.310442
  H      -3.564162      1.334424     -1.341444
  H      -2.523517      2.441002     -0.425702
  C      -3.158661     -0.924777      0.170621
  H      -2.055164      0.583877      1.215347
  H      -4.067878     -0.787339      0.754436
  H      -3.452206     -1.192274     -0.845281
  H      -2.616701     -1.764685      0.602311
  C      -0.901045      0.427346     -1.748111
  C       0.424915      0.254390     -2.269190
  H      -1.710533      0.822117     -2.354370
  C       1.492449      0.183565     -1.378232
  C       2.697127     -0.106962     -2.084981
  S       0.877024      0.001680     -3.887218
  C       2.512099     -0.227409     -3.428741
  H       1.599278      1.191282     -0.593316
  H       3.670894     -0.163944     -1.620569
  H       3.258482     -0.414774     -4.185696
  H      -0.678749     -3.235508     -0.265316
  H      -0.911219     -2.407871      2.317401
  H       1.494451     -1.504205      3.094364
  O       1.663510      2.324273      0.176762
  O       0.540160      1.003867      1.570852
  C       1.080644      2.115078      1.254094
  C       1.022412      3.203096      2.285426
  H       0.991996      4.181512      1.812563
  H       1.928502      3.161116      2.892667
  H       0.170739      3.080050      2.949333
  H       3.235249     -1.862695      1.088511
  H       1.862989     -2.901030     -1.015212
39
Coordinates from ORCA-job reaction4-IEIP_ts_guess_scan_9-9_orca E -1288.402043276547
  Ir      0.611193     -0.720072      0.443591
  C       0.107068     -2.827836      0.353332
  C      -0.026028     -2.364964      1.709393
  C       2.177170     -2.088376      1.063449
  C       1.449002     -2.654975     -0.043723
  C       1.264119     -1.939467      2.134409
  N      -1.059245      0.127342     -0.511944
  C      -2.334769      0.355272      0.185277
  C      -3.128512      1.533710     -0.360452
  H      -3.959691      1.740288      0.312149
  H      -3.564360      1.333914     -1.340266
  H      -2.524963      2.439514     -0.421896
  C      -3.158413     -0.927663      0.167808
  H      -2.056422      0.579588      1.215997
  H      -4.068248     -0.791558      0.750964
  H      -3.450852     -1.193668     -0.848813
  H      -2.616526     -1.767993      0.598693
  C      -0.899773      0.430449     -1.746901
  C       0.425727      0.257993     -2.269308
  H      -1.709322      0.826782     -2.352083
  C       1.492685      0.178085     -1.378317
  C       2.697478     -0.108504     -2.086446
  S       0.877967      0.014296     -3.888574
  C       2.513612     -0.213909     -3.431680
  H       1.602974      1.188179     -0.593653
  H       3.670854     -0.170617     -1.621894
  H       3.260525     -0.393532     -4.189990
  H      -0.683057     -3.236518     -0.259770
  H      -0.913715     -2.406167      2.322201
  H       1.493253     -1.504932      3.097255
  O       1.667587      2.322844      0.173927
  O       0.543780      1.004414      1.569707
  C       1.086366      2.114021      1.252577
  C       1.024555      3.205709      2.279844
  H       0.991480      4.182353      1.803474
  H       1.930605      3.168537      2.887404
  H       0.172982      3.082598      2.943864
  H       3.233289     -1.868726      1.091846
  H       1.858996     -2.907220     -1.010710
39
Coordinates from ORCA-job reaction4-IEIP_ts_guess_scan_9-9_orca E -1288.402097054712
  Ir      0.609618     -0.726283      0.447131
  C       0.097566     -2.831778      0.368668
  C      -0.034359     -2.364956      1.723254
  C       2.169812     -2.097197      1.076008
  C       1.440571     -2.665521     -0.029188
  C       1.256198     -1.941040      2.146007
  N      -1.058323      0.124255     -0.511482
  C      -2.336163      0.345957      0.184053
  C      -3.132081      1.525174     -0.356909
  H      -3.964718      1.726097      0.315505
  H      -3.566118      1.329241     -1.338334
  H      -2.530791      2.432859     -0.412921
  C      -3.157499     -0.938384      0.158759
  H      -2.060759      0.565756      1.216614
  H      -4.069426     -0.806283      0.739538
  H      -3.446170     -1.200709     -0.859910
  H      -2.615629     -1.779487      0.587966
  C      -0.896683      0.439879     -1.743712
  C       0.427892      0.272097     -2.269392
  H      -1.706179      0.842447     -2.344883
  C       1.492625      0.162637     -1.378569
  C       2.697703     -0.111781     -2.090981
  S       0.883367      0.072390     -3.893430
  C       2.516422     -0.177867     -3.439246
  H       1.613601      1.177734     -0.592187
  H       3.669383     -0.194328     -1.626092
  H       3.263931     -0.341270     -4.200637
  H      -0.693512     -3.240308     -0.243314
  H      -0.922570     -2.400146      2.335613
  H       1.486613     -1.502985      3.106964
  O       1.674058      2.321829      0.161608
  O       0.550717      1.007469      1.563386
  C       1.092855      2.114855      1.241851
  C       1.036333      3.211239      2.264499
  H       0.996940      4.185475      1.783723
  H       1.947282      3.179654      2.864977
  H       0.190142      3.088916      2.935446
  H       3.226853     -1.882221      1.105091
  H       1.849868     -2.924225     -0.994733
39
Coordinates from ORCA-job reaction4-IEIP_ts_guess_scan_9-9_orca E -1288.402102035986
  Ir      0.609250     -0.730191      0.448549
  C       0.093384     -2.833959      0.375765
  C      -0.040111     -2.364526      1.729207
  C       2.165799     -2.101752      1.084981
  C       1.437705     -2.671371     -0.020101
  C       1.250272     -1.941423      2.152923
  N      -1.056218      0.122323     -0.511747
  C      -2.334218      0.341957      0.184062
  C      -3.131465      1.521134     -0.355008
  H      -3.963854      1.720300      0.318207
  H      -3.565924      1.326059     -1.336427
  H      -2.531101      2.429488     -0.410186
  C      -3.154725     -0.942862      0.157065
  H      -2.059051      0.560743      1.216953
  H      -4.067487     -0.811553      0.736736
  H      -3.441895     -1.204779     -0.862113
  H      -2.613117     -1.783968      0.586530
  C      -0.894738      0.445243     -1.741576
  C       0.428123      0.279524     -2.269407
  H      -1.704316      0.852280     -2.339510
  C       1.492114      0.152584     -1.380199
  C       2.696477     -0.113877     -2.096425
  S       0.884218      0.108848     -3.896492
  C       2.515486     -0.156353     -3.445870
  H       1.620091      1.169646     -0.593615
  H       3.667517     -0.209271     -1.632712
  H       3.262674     -0.309932     -4.209625
  H      -0.697060     -3.242660     -0.236896
  H      -0.929619     -2.396265      2.339862
  H       1.479896     -1.501101      3.113046
  O       1.688291      2.312736      0.161044
  O       0.551272      1.006951      1.559189
  C       1.098873      2.111021      1.238283
  C       1.037411      3.212982      2.254700
  H       0.998314      4.184366      1.768117
  H       1.946559      3.186200      2.858089
  H       0.189107      3.093397      2.923432
  H       3.223240     -1.889012      1.116019
  H       1.848196     -2.933739     -0.984111
39
Coordinates from ORCA-job reaction4-IEIP_ts_guess_scan_9-9_orca E -1288.402102042180
  Ir      0.608901     -0.731079      0.448609
  C       0.093261     -2.834713      0.377261
  C      -0.042691     -2.363586      1.729967
  C       2.164551     -2.101884      1.089622
  C       1.438426     -2.672702     -0.016129
  C       1.247086     -1.940193      2.155678
  N      -1.056121      0.121818     -0.512382
  C      -2.334063      0.340668      0.183870
  C      -3.132337      1.519365     -0.354784
  H      -3.964407      1.717937      0.319010
  H      -3.567280      1.324017     -1.335929
  H      -2.532660      2.428160     -0.410283
  C      -3.153942     -0.944519      0.156760
  H      -2.058838      0.559692      1.216678
  H      -4.067221     -0.813354      0.735675
  H      -3.440226     -1.206919     -0.862531
  H      -2.612481     -1.785341      0.586896
  C      -0.894718      0.447307     -1.741463
  C       0.427577      0.281595     -2.269780
  H      -1.704165      0.855892     -2.338417
  C       1.491513      0.149048     -1.381537
  C       2.695580     -0.114290     -2.099087
  S       0.883560      0.119356     -3.897895
  C       2.514469     -0.149130     -3.448851
  H       1.622232      1.165393     -0.593528
  H       3.666571     -0.213308     -1.636018
  H       3.261629     -0.298988     -4.213368
  H      -0.695880     -3.244335     -0.236448
  H      -0.933276     -2.394593      2.339096
  H       1.475061     -1.498736      3.115674
  O       1.695370      2.307354      0.162376
  O       0.549012      1.007364      1.557763
  C       1.099678      2.109972      1.236941
  C       1.039868      3.212841      2.252407
  H       1.002307      4.183667      1.764562
  H       1.949049      3.185498      2.855732
  H       0.191337      3.095391      2.921192
  H       3.221941     -1.889149      1.122431
  H       1.850697     -2.936325     -0.979030
39
Coordinates from ORCA-job reaction4-IEIP_ts_guess_scan_9-9_orca E -1288.402101187668
  Ir      0.608680     -0.731230      0.448089
  C       0.094668     -2.835209      0.376630
  C      -0.045027     -2.362390      1.728550
  C       2.163898     -2.100726      1.093995
  C       1.440830     -2.672816     -0.013099
  C       1.243686     -1.938421      2.157527
  N      -1.056293      0.121878     -0.512778
  C      -2.333951      0.340001      0.184261
  C      -3.133311      1.518253     -0.353854
  H      -3.964939      1.716238      0.320669
  H      -3.568866      1.322638     -1.334669
  H      -2.534349      2.427504     -0.409727
  C      -3.153208     -0.945533      0.156917
  H      -2.058463      0.559268      1.216914
  H      -4.067033     -0.814545      0.735037
  H      -3.438588     -1.208307     -0.862522
  H      -2.611973     -1.786183      0.587614
  C      -0.895082      0.449558     -1.741357
  C       0.426824      0.283527     -2.270100
  H      -1.704280      0.859907     -2.337341
  C       1.491016      0.146836     -1.383179
  C       2.694546     -0.114780     -2.101824
  S       0.882578      0.128669     -3.899275
  C       2.512480     -0.146657     -3.451670
  H       1.624752      1.160402     -0.591623
  H       3.665607     -0.216866     -1.639551
  H       3.259169     -0.296096     -4.216723
  H      -0.692439     -3.246195     -0.238758
  H      -0.937014     -2.393523      2.335631
  H       1.469017     -1.496069      3.117732
  O       1.703791      2.301384      0.165166
  O       0.546170      1.007573      1.556778
  C       1.102898      2.107924      1.237370
  C       1.041190      3.212392      2.250802
  H       1.003722      4.182166      1.760772
  H       1.949858      3.186884      2.854953
  H       0.191955      3.095988      2.918818
  H       3.221057     -1.887232      1.129251
  H       1.855792     -2.937022     -0.974687
39
Coordinates from ORCA-job reaction4-IEIP_ts_guess_scan_9-9_orca E -1288.402103707481
  Ir      0.608191     -0.730106      0.447610
  C       0.096521     -2.834850      0.375303
  C      -0.046784     -2.360880      1.726584
  C       2.163458     -2.098088      1.097359
  C       1.443448     -2.671340     -0.011070
  C       1.240638     -1.936029      2.158643
  N      -1.057007      0.122436     -0.512797
  C      -2.334698      0.339540      0.184358
  C      -3.134882      1.517362     -0.353536
  H      -3.966659      1.714531      0.321035
  H      -3.570191      1.321638     -1.334442
  H      -2.536657      2.427118     -0.409092
  C      -3.153092     -0.946515      0.156134
  H      -2.059442      0.558801      1.217057
  H      -4.067476     -0.816274      0.733550
  H      -3.437526     -1.209166     -0.863601
  H      -2.611767     -1.787072      0.586908
  C      -0.895924      0.450698     -1.741360
  C       0.425772      0.284134     -2.270502
  H      -1.705130      0.861461     -2.337041
  C       1.490321      0.146382     -1.384514
  C       2.693341     -0.115516     -2.103603
  S       0.880558      0.128580     -3.900149
  C       2.510609     -0.146396     -3.453465
  H       1.626636      1.157233     -0.589770
  H       3.664607     -0.218006     -1.641874
  H       3.257095     -0.295766     -4.218728
  H      -0.688619     -3.247242     -0.241643
  H      -0.939960     -2.392870      2.331878
  H       1.463260     -1.493128      3.119224
  O       1.709033      2.297747      0.167365
  O       0.543753      1.008306      1.556513
  C       1.105094      2.106934      1.238120
  C       1.044604      3.211486      2.251413
  H       1.006088      4.181057      1.760970
  H       1.954403      3.186707      2.853880
  H       0.196480      3.095164      2.920779
  H       3.220301     -1.883413      1.134819
  H       1.860977     -2.935468     -0.971575
39
Coordinates from ORCA-job reaction4-IEIP_ts_guess_scan_9-9_orca E -1288.402105381486
  Ir      0.607494     -0.728523      0.447465
  C       0.099038     -2.834470      0.374178
  C      -0.048659     -2.359680      1.724825
  C       2.162971     -2.094491      1.101807
  C       1.446820     -2.669232     -0.008235
  C       1.236870     -1.933291      2.160452
  N      -1.058434      0.122873     -0.512592
  C      -2.336669      0.338108      0.184095
  C      -3.137354      1.516230     -0.352466
  H      -3.969769      1.711663      0.321802
  H      -3.571739      1.321741     -1.334028
  H      -2.539777      2.426526     -0.406046
  C      -3.154270     -0.948413      0.152904
  H      -2.062292      0.555948      1.217332
  H      -4.069298     -0.819873      0.729686
  H      -3.437607     -1.209292     -0.867602
  H      -2.612867     -1.789536      0.582455
  C      -0.897293      0.451603     -1.741180
  C       0.424243      0.285189     -2.270926
  H      -1.706706      0.862344     -2.336621
  C       1.489122      0.146162     -1.385761
  C       2.691568     -0.116558     -2.105364
  S       0.877949      0.128543     -3.900996
  C       2.508114     -0.146438     -3.455206
  H       1.629064      1.154403     -0.587529
  H       3.663049     -0.219477     -1.644205
  H       3.254343     -0.295987     -4.220689
  H      -0.683700     -3.248623     -0.244627
  H      -0.943214     -2.393142      2.328005
  H       1.456035     -1.489807      3.121558
  O       1.715840      2.294614      0.169575
  O       0.542383      1.010080      1.556430
  C       1.109365      2.106321      1.239238
  C       1.050749      3.211351      2.252072
  H       1.008970      4.180538      1.761032
  H       1.962981      3.188806      2.850921
  H       0.205213      3.094266      2.924493
  H       3.219399     -1.878284      1.141990
  H       1.867440     -2.933002     -0.967501
39
Coordinates from ORCA-job reaction4-IEIP_ts_guess_scan_9-9_orca E -1288.402106184842
  Ir      0.606880     -0.727430      0.447537
  C       0.101203     -2.834257      0.373114
  C      -0.050464     -2.359522      1.723400
  C       2.162378     -2.091515      1.105937
  C       1.449790     -2.667417     -0.005667
  C       1.233213     -1.931531      2.162248
  N      -1.059419      0.122806     -0.512359
  C      -2.338045      0.336657      0.183966
  C      -3.138537      1.515731     -0.350800
  H      -3.971413      1.709765      0.323284
  H      -3.572239      1.323110     -1.333032
  H      -2.540952      2.426140     -0.402207
  C      -3.155434     -0.949948      0.149791
  H      -2.064293      0.552569      1.217785
  H      -4.070584     -0.823012      0.726729
  H      -3.438549     -1.208467     -0.871386
  H      -2.613857     -1.792004      0.577346
  C      -0.898439      0.451609     -1.740963
  C       0.422898      0.285866     -2.271281
  H      -1.708234      0.861991     -2.336184
  C       1.487970      0.145916     -1.386586
  C       2.690023     -0.117380     -2.106654
  S       0.875821      0.128794     -3.901590
  C       2.506058     -0.146465     -3.456457
  H       1.630930      1.152955     -0.586569
  H       3.661658     -0.220632     -1.645896
  H       3.252056     -0.296005     -4.222172
  H      -0.679393     -3.249684     -0.247530
  H      -0.946359     -2.394390      2.324506
  H       1.449181     -1.487670      3.123907
  O       1.721046      2.292710      0.170830
  O       0.541793      1.011543      1.555950
  C       1.112605      2.105973      1.239709
  C       1.055528      3.211578      2.252037
  H       1.009205      4.180300      1.760411
  H       1.970589      3.192184      2.846650
  H       0.213147      3.092960      2.928086
  H       3.218441     -1.874058      1.148743
  H       1.873169     -2.930581     -0.963893
39
Coordinates from ORCA-job reaction4-IEIP_ts_guess_scan_9-9_orca E -1288.402107622283
  Ir      0.606164     -0.726382      0.447884
  C       0.105191     -2.834385      0.370753
  C      -0.053373     -2.360692      1.720708
  C       2.161577     -2.087265      1.112989
  C       1.455219     -2.664736     -0.001568
  C       1.227047     -1.929908      2.165305
  N      -1.060757      0.122128     -0.511915
  C      -2.339786      0.334366      0.184146
  C      -3.138954      1.515967     -0.346974
  H      -3.972315      1.708158      0.327022
  H      -3.571870      1.327365     -1.330329
  H      -2.540456      2.425973     -0.394476
  C      -3.157792     -0.951724      0.144752
  H      -2.066750      0.546406      1.218963
  H      -4.072587     -0.827176      0.722765
  H      -3.441509     -1.205496     -0.877459
  H      -2.616132     -1.795927      0.568033
  C      -0.900333      0.450638     -1.740598
  C       0.420689      0.286062     -2.271711
  H      -1.710850      0.860112     -2.335531
  C       1.486079      0.145401     -1.387547
  C       2.687678     -0.118367     -2.108331
  S       0.872601      0.128745     -3.902260
  C       2.502973     -0.146908     -3.458044
  H       1.633130      1.151570     -0.586157
  H       3.659562     -0.221716     -1.648107
  H       3.248591     -0.296330     -4.224158
  H      -0.671693     -3.251569     -0.253347
  H      -0.951746     -2.398002      2.317956
  H       1.437454     -1.485727      3.128053
  O       1.727900      2.290527      0.171875
  O       0.541487      1.013650      1.554906
  C       1.116814      2.105745      1.239776
  C       1.061830      3.212487      2.251066
  H       1.005302      4.180119      1.758242
  H       1.982540      3.200302      2.837064
  H       0.226069      3.090027      2.934528
  H       3.217025     -1.867870      1.160579
  H       1.883352     -2.926378     -0.958113
39
Coordinates from ORCA-job reaction4-IEIP_ts_guess_scan_9-9_orca E -1288.402109698878
  Ir      0.605815     -0.726144      0.448385
  C       0.109635     -2.834920      0.367159
  C      -0.056744     -2.363285      1.717015
  C       2.160684     -2.083842      1.120697
  C       1.461387     -2.662344      0.002457
  C       1.220033     -1.929770      2.168465
  N      -1.061581      0.121065     -0.511199
  C      -2.340668      0.332309      0.185110
  C      -3.137627      1.517369     -0.341565
  H      -3.971144      1.708117      0.332648
  H      -3.570149      1.333764     -1.326029
  H      -2.537388      2.426425     -0.384846
  C      -3.160150     -0.952663      0.140174
  H      -2.067941      0.539798      1.220918
  H      -4.073993     -0.830367      0.720164
  H      -3.445501     -1.200818     -0.882968
  H      -2.618502     -1.799609      0.558081
  C      -0.902089      0.448911     -1.740071
  C       0.418627      0.285206     -2.271909
  H      -1.713384      0.857288     -2.334747
  C       1.484396      0.144645     -1.388156
  C       2.685677     -0.119173     -2.109631
  S       0.869714      0.127977     -3.902591
  C       2.500307     -0.147763     -3.459236
  H       1.634548      1.150933     -0.586985
  H       3.657807     -0.222249     -1.649844
  H       3.245506     -0.296980     -4.225798
  H      -0.663065     -3.253450     -0.261210
  H      -0.958145     -2.403071      2.309518
  H       1.424195     -1.485721      3.132622
  O       1.732641      2.289324      0.171475
  O       0.541920      1.015274      1.553457
  C       1.119769      2.105850      1.238812
  C       1.066111      3.213933      2.248780
  H       0.995055      4.179906      1.754436
  H       1.993952      3.212217      2.823510
  H       0.239289      3.085573      2.941877
  H       3.215487     -1.862735      1.174052
  H       1.894887     -2.921790     -0.952288
39
Coordinates from ORCA-job reaction4-IEIP_ts_guess_scan_9-9_orca E -1288.402112352832
  Ir      0.606108     -0.726915      0.449028
  C       0.114342     -2.835936      0.362347
  C      -0.060361     -2.367145      1.712318
  C       2.159834     -2.081913      1.128682
  C       1.468038     -2.660657      0.006150
  C       1.212622     -1.931449      2.171516
  N      -1.061757      0.119832     -0.510065
  C      -2.340538      0.330798      0.187019
  C      -3.134571      1.519931     -0.334852
  H      -3.967951      1.709744      0.339808
  H      -3.567027      1.341864     -1.320353
  H      -2.531964      2.427599     -0.373907
  C      -3.162332     -0.952475      0.136604
  H      -2.067713      0.533512      1.223714
  H      -4.074820     -0.831984      0.719099
  H      -3.450030     -1.194685     -0.887304
  H      -2.621016     -1.802553      0.548645
  C      -0.903471      0.446897     -1.739210
  C       0.416986      0.283339     -2.271701
  H      -1.715437      0.854343     -2.333622
  C       1.483273      0.143527     -1.388355
  C       2.684317     -0.119849     -2.110543
  S       0.867376      0.126613     -3.902479
  C       2.498306     -0.148876     -3.460029
  H       1.634964      1.150861     -0.589011
  H       3.656699     -0.222425     -1.651150
  H       3.243020     -0.297789     -4.227115
  H      -0.653892     -3.255287     -0.270920
  H      -0.965227     -2.409089      2.299365
  H       1.410231     -1.488123      3.137370
  O       1.734545      2.289169      0.169378
  O       0.543372      1.016075      1.551849
  C       1.121211      2.106285      1.236732
  C       1.067607      3.215866      2.245085
  H       0.977549      4.179434      1.748956
  H       2.003733      3.228157      2.806025
  H       0.252058      3.079472      2.949809
  H       3.214022     -1.859611      1.188592
  H       1.907267     -2.917366     -0.946736
39
Coordinates from ORCA-job reaction4-IEIP_ts_guess_scan_9-9_orca E -1288.402114746945
  Ir      0.606924     -0.728077      0.449398
  C       0.116895     -2.836775      0.358587
  C      -0.062606     -2.369989      1.708770
  C       2.159343     -2.082365      1.133066
  C       1.471841     -2.660454      0.007703
  C       1.208286     -1.933906      2.172922
  N      -1.061174      0.119324     -0.508977
  C      -2.339501      0.330674      0.188921
  C      -3.131718      1.522155     -0.330392
  H      -3.964834      1.711821      0.344653
  H      -3.564355      1.347112     -1.316349
  H      -2.527626      2.428922     -0.367400
  C      -3.162980     -0.951385      0.135928
  H      -2.066284      0.531000      1.225943
  H      -4.074566     -0.831412      0.719947
  H      -3.452261     -1.190573     -0.888237
  H      -2.622095     -1.803258      0.544866
  C      -0.903671      0.445984     -1.738333
  C       0.416681      0.281677     -2.271180
  H      -1.715804      0.853317     -2.332566
  C       1.483427      0.142650     -1.388165
  C       2.684319     -0.120276     -2.110795
  S       0.866653      0.125286     -3.902034
  C       2.497880     -0.149825     -3.460194
  H       1.634304      1.151242     -0.591053
  H       3.656855     -0.222536     -1.651641
  H       3.242221     -0.298664     -4.227650
  H      -0.648750     -3.256104     -0.277813
  H      -0.969703     -2.412600      2.292325
  H       1.402223     -1.491581      3.139976
  O       1.732668      2.290094      0.166678
  O       0.545215      1.015643      1.551052
  C       1.120631      2.106800      1.234698
  C       1.065844      3.217178      2.242062
  H       0.961246      4.178800      1.744853
  H       2.007543      3.240359      2.793182
  H       0.258592      3.074296      2.954934
  H       3.213270     -1.860029      1.197185
  H       1.914435     -2.915334     -0.944129
39
Coordinates from ORCA-job reaction4-IEIP_ts_guess_scan_9-9_orca E -1288.402116565110
  Ir      0.607838     -0.728985      0.449504
  C       0.117771     -2.837315      0.356486
  C      -0.063607     -2.371301      1.706790
  C       2.159195     -2.083751      1.134714
  C       1.473333     -2.661071      0.008010
  C       1.206567     -1.935836      2.173270
  N      -1.060397      0.119490     -0.508156
  C      -2.338397      0.331290      0.190213
  C      -3.130077      1.523421     -0.328500
  H      -3.963037      1.713205      0.346712
  H      -3.562846      1.349125     -1.314530
  H      -2.525586      2.429945     -0.365103
  C      -3.162638     -0.950239      0.136739
  H      -2.064843      0.531178      1.227214
  H      -4.074016     -0.829989      0.721034
  H      -3.452324     -1.188831     -0.887447
  H      -2.622223     -1.802680      0.545093
  C      -0.903150      0.446288     -1.737558
  C       0.417123      0.280987     -2.270645
  H      -1.715099      0.854207     -2.331607
  C       1.484218      0.142018     -1.387987
  C       2.684895     -0.120747     -2.110960
  S       0.866691      0.124832     -3.901653
  C       2.498087     -0.150317     -3.460304
  H       1.633462      1.151395     -0.592247
  H       3.657524     -0.223198     -1.652047
  H       3.242138     -0.299239     -4.228022
  H      -0.646832     -3.256399     -0.281318
  H      -0.971736     -2.413636      2.288769
  H       1.399162     -1.494331      3.140964
  O       1.729705      2.291013      0.164603
  O       0.546797      1.014679      1.551087
  C       1.119480      2.107064      1.233426
  C       1.063243      3.217701      2.240355
  H       0.949883      4.178144      1.742680
  H       2.007889      3.247566      2.786040
  H       0.260741      3.070638      2.957678
  H       3.213104     -1.861918      1.200812
  H       1.917332     -2.915214     -0.943369
39
Coordinates from ORCA-job reaction4-IEIP_ts_guess_scan_9-9_orca E -1288.402117572513
  Ir      0.608439     -0.729337      0.449486
  C       0.118100     -2.837580      0.355510
  C      -0.064130     -2.371651      1.705788
  C       2.159118     -2.084573      1.135497
  C       1.473978     -2.661549      0.008199
  C       1.205745     -1.936696      2.173410
  N      -1.059862      0.119911     -0.507651
  C      -2.337758      0.331805      0.190823
  C      -3.129565      1.523884     -0.327867
  H      -3.962526      1.713569      0.347370
  H      -3.562327      1.349539     -1.313892
  H      -2.525247      2.430530     -0.364458
  C      -3.162117     -0.949643      0.137287
  H      -2.064087      0.531762      1.227782
  H      -4.073674     -0.829182      0.721265
  H      -3.451531     -1.188315     -0.886956
  H      -2.622025     -1.802165      0.545875
  C      -0.902592      0.447081     -1.736987
  C       0.417542      0.281159     -2.270341
  H      -1.714332      0.855695     -2.330832
  C       1.484843      0.141610     -1.388020
  C       2.685235     -0.121403     -2.111307
  S       0.866634      0.125050     -3.901536
  C       2.498064     -0.150626     -3.460607
  H       1.633022      1.151210     -0.592554
  H       3.657930     -0.224372     -1.652658
  H       3.241884     -0.299747     -4.228511
  H      -0.646004     -3.256647     -0.282894
  H      -0.972721     -2.413691      2.287077
  H       1.397755     -1.495636      3.141420
  O       1.727805      2.291437      0.163564
  O       0.547842      1.013970      1.551508
  C       1.118884      2.107084      1.232961
  C       1.061803      3.217829      2.239692
  H       0.943288      4.177620      1.741891
  H       2.008142      3.251627      2.782182
  H       0.262106      3.068224      2.959585
  H       3.213035     -1.863069      1.202545
  H       1.918673     -2.915521     -0.942902
