39
Generated by autodE on: 2023-08-14. E = -1288.397675 Ha
Ir    0.59031  -0.72632   0.47702
C     0.03626  -2.81060   0.37783
C     0.07122  -2.35252   1.74336
C     2.18904  -2.13685   0.85787
C     1.32095  -2.65487  -0.17519
C     1.42683  -1.98541   2.03119
N    -1.04233   0.14711  -0.51666
C    -2.31987   0.44498   0.15173
C    -3.11794   1.54914  -0.52398
H    -3.94859   1.82922   0.12245
H    -3.55608   1.23813  -1.47357
H    -2.51853   2.44487  -0.68889
C    -3.13684  -0.83429   0.28934
H    -2.03836   0.78665   1.14910
H    -4.05613  -0.62457   0.83424
H    -3.41246  -1.23529  -0.68691
H    -2.60156  -1.60467   0.84227
C    -0.85456   0.37526  -1.76108
C     0.48722   0.18695  -2.25385
H    -1.65123   0.73088  -2.40810
C     1.58385   0.40581  -1.42800
C     2.78780   0.04670  -2.09744
S     0.91873  -0.39535  -3.79674
C     2.57981  -0.39309  -3.36863
H     1.54000   1.32229  -0.61742
H     3.77302   0.16469  -1.67020
H     3.31867  -0.69585  -4.09520
H    -0.83493  -3.17841  -0.14496
H    -0.74224  -2.38042   2.45311
H     1.78194  -1.58283   2.96903
O     1.40720   2.41217   0.22801
O     0.53383   0.93924   1.65540
C     0.95808   2.11015   1.33752
C     0.91125   3.12736   2.44112
H     0.88596   4.13552   2.03662
H     1.81488   3.03401   3.04677
H     0.06108   2.96637   3.10026
H     3.24056  -1.91609   0.75141
H     1.61253  -2.89090  -1.18809
