! Opt PBEh-3c
%geom Constraints
{ B 0 20 2.0 C }
{ B 24 30 1.4428571428571428 C }
    end
end
%output 
xyzfile=True 
end 
%scf 
maxiter 250 
end
%output
Print[P_Hirshfeld] = 1
end
% maxcore
4000
*xyz 1 1
Ir   0.62649901  -0.72448460   0.39039524 
C    0.16612960  -2.84873489   0.31403999 
C   -0.05446203  -2.40803786   1.66739439 
C    2.17088380  -2.05570128   1.14411698 
C    1.53091478  -2.65376760   0.00589836 
C    1.18218470  -1.93976577   2.16256298 
N   -1.07076719   0.12634408  -0.51510358 
C   -2.33229710   0.33382068   0.20973647 
C   -3.12909657   1.53586217  -0.27637499 
H   -3.95263749   1.71390527   0.41329739 
H   -3.57492469   1.37949565  -1.25963498 
H   -2.52391375   2.44228854  -0.30439025 
C   -3.16035978  -0.94558827   0.15130968 
H   -2.03686162   0.51544377   1.24417417 
H   -4.05634237  -0.83506739   0.76072030 
H   -3.47588278  -1.16301219  -0.86989489 
H   -2.61065027  -1.80647791   0.52808447 
C   -0.92679877   0.47905801  -1.73968272 
C    0.39030518   0.28578028  -2.26581432 
H   -1.73188376   0.92024663  -2.31773755 
C    1.41068109   0.03718637  -1.33534551 
C    2.63477773  -0.21715638  -2.04203247 
S    0.90020092   0.22939452  -3.87690293 
C    2.50381707  -0.14266111  -3.39276770 
H    1.59985460   1.11879973  -0.69857957 
H    3.58488091  -0.38401783  -1.55510624 
H    3.27327734  -0.26264835  -4.14020330 
H   -0.57008656  -3.29103771  -0.34108111 
H   -0.97846758  -2.46504235   2.22202364 
H    1.33870845  -1.49520033   3.13525359 
O    1.68708235   2.34788606   0.07924009 
O    0.58582401   1.02338919   1.49055388 
C    1.11724629   2.13504683   1.16159765 
C    1.05764887   3.23154076   2.18663679 
H    0.97797273   4.20311254   1.70514938 
H    1.98600577   3.22781601   2.76047795 
H    0.23364978   3.08821404   2.88042184 
H    3.22033165  -1.82775791   1.24845742 
H    2.00592577  -2.90928141  -0.93015037 
*
