39
Coordinates from ORCA-job reaction4-IEIP_ts_guess_scan_12-14_orca E -1288.406819305853
  Ir      0.610873     -0.739515      0.418126
  C       0.150356     -2.849102      0.338814
  C      -0.114463     -2.401875      1.682997
  C       2.131142     -2.059665      1.231408
  C       1.528500     -2.659762      0.076722
  C       1.106912     -1.933889      2.216974
  N      -1.076657      0.103760     -0.510194
  C      -2.352598      0.277815      0.200984
  C      -3.144569      1.497810     -0.247990
  H      -3.978019      1.647555      0.436474
  H      -3.575733      1.382629     -1.243333
  H      -2.539470      2.404562     -0.230804
  C      -3.177371     -0.998509      0.078871
  H      -2.078068      0.421393      1.247205
  H      -4.084544     -0.914921      0.676089
  H      -3.473873     -1.176418     -0.955631
  H      -2.632336     -1.873420      0.429676
  C      -0.929322      0.478166     -1.722496
  C       0.383716      0.313360     -2.250900
  H      -1.739812      0.915987     -2.296359
  C       1.408705      0.016559     -1.354448
  C       2.625522     -0.193705     -2.070054
  S       0.888911      0.364263     -3.873132
  C       2.488337     -0.031420     -3.417149
  H       1.645615      1.180638     -0.621886
  H       3.576789     -0.402337     -1.602041
  H       3.256872     -0.107789     -4.171421
  H      -0.562984     -3.294316     -0.339211
  H      -1.056729     -2.454594      2.206466
  H       1.231610     -1.485642      3.192592
  O       1.775070      2.277124      0.064378
  O       0.594438      1.048472      1.480722
  C       1.173621      2.117566      1.151421
  C       1.166372      3.253741      2.128221
  H       1.040549      4.203210      1.612551
  H       2.131720      3.289221      2.636136
  H       0.390088      3.128678      2.877394
  H       3.176967     -1.831927      1.367384
  H       2.033228     -2.914512     -0.843818
39
Coordinates from ORCA-job reaction4-IEIP_ts_guess_scan_12-14_orca E -1288.407061915094
  Ir      0.610473     -0.739943      0.415493
  C       0.149933     -2.851732      0.340074
  C      -0.112522     -2.406030      1.685149
  C       2.130991     -2.061550      1.230133
  C       1.527462     -2.662558      0.076416
  C       1.107933     -1.936830      2.216506
  N      -1.079674      0.101970     -0.508706
  C      -2.354919      0.277307      0.203554
  C      -3.145335      1.498224     -0.245606
  H      -3.978793      1.648997      0.438596
  H      -3.576270      1.383521     -1.241123
  H      -2.539208      2.404312     -0.228320
  C      -3.181462     -0.997874      0.081850
  H      -2.079920      0.420663      1.249714
  H      -4.088354     -0.913054      0.679315
  H      -3.478588     -1.175496     -0.952539
  H      -2.637535     -1.873486      0.432561
  C      -0.929329      0.477238     -1.726131
  C       0.387317      0.314552     -2.256923
  H      -1.739321      0.916037     -2.299891
  C       1.408820      0.012968     -1.358195
  C       2.627429     -0.197207     -2.071587
  S       0.897188      0.371680     -3.877667
  C       2.494363     -0.030150     -3.418578
  H       1.650411      1.189243     -0.625637
  H       3.577259     -0.408331     -1.601568
  H       3.264957     -0.105932     -4.170721
  H      -0.564041     -3.297854     -0.336713
  H      -1.053623     -2.460082      2.210461
  H       1.233636     -1.488963      3.192161
  O       1.778526      2.284995      0.062052
  O       0.593038      1.050639      1.480100
  C       1.174078      2.121138      1.150896
  C       1.163845      3.256613      2.128097
  H       1.037927      4.206291      1.612763
  H       2.128180      3.292782      2.637865
  H       0.386201      3.130086      2.875520
  H       3.177002     -1.834349      1.365624
  H       2.031295     -2.918647     -0.844257
39
Coordinates from ORCA-job reaction4-IEIP_ts_guess_scan_12-14_orca E -1288.407158925679
  Ir      0.609761     -0.739953      0.414382
  C       0.146667     -2.852492      0.345160
  C      -0.113014     -2.407788      1.690852
  C       2.128959     -2.063411      1.231811
  C       1.523999     -2.665163      0.079589
  C       1.107123     -1.938526      2.219174
  N      -1.080423      0.101143     -0.507348
  C      -2.355388      0.275977      0.203851
  C      -3.145504      1.496461     -0.246946
  H      -3.980491      1.647182      0.435445
  H      -3.574084      1.381203     -1.243408
  H      -2.539751      2.402763     -0.228771
  C      -3.181177     -0.999669      0.082334
  H      -2.080797      0.419795      1.250043
  H      -4.088470     -0.915151      0.679268
  H      -3.477570     -1.177962     -0.952119
  H      -2.636766     -1.874743      0.433821
  C      -0.929021      0.478538     -1.726351
  C       0.388077      0.317625     -2.260894
  H      -1.739837      0.917942     -2.298304
  C       1.406758      0.007010     -1.362426
  C       2.626737     -0.199967     -2.074661
  S       0.900009      0.382064     -3.880759
  C       2.496828     -0.020827     -3.420494
  H       1.655654      1.196652     -0.631516
  H       3.575445     -0.415212     -1.604183
  H       3.269287     -0.091049     -4.171240
  H      -0.568467     -3.298936     -0.330163
  H      -1.053196     -2.461485      2.217809
  H       1.234407     -1.490489      3.194547
  O       1.782529      2.290333      0.059690
  O       0.593407      1.051904      1.477484
  C       1.175233      2.122386      1.149090
  C       1.165029      3.256560      2.126943
  H       1.039827      4.206877      1.612583
  H       2.129015      3.291809      2.637501
  H       0.386676      3.129142      2.873386
  H       3.175369     -1.837790      1.366712
  H       2.026529     -2.923563     -0.841153
39
Coordinates from ORCA-job reaction4-IEIP_ts_guess_scan_12-14_orca E -1288.407224298873
  Ir      0.609128     -0.740499      0.413911
  C       0.142967     -2.852868      0.352078
  C      -0.114635     -2.408856      1.698193
  C       2.126400     -2.065181      1.235860
  C       1.520459     -2.667791      0.085025
  C       1.105272     -1.939653      2.224016
  N      -1.080611      0.100259     -0.507559
  C      -2.356350      0.272812      0.202226
  C      -3.148237      1.492458     -0.247955
  H      -3.984520      1.640988      0.433327
  H      -3.575105      1.377485     -1.245146
  H      -2.544091      2.399792     -0.227962
  C      -3.180325     -1.003936      0.079691
  H      -2.082705      0.416109      1.248789
  H      -4.088173     -0.921058      0.676025
  H      -3.475604     -1.182245     -0.955066
  H      -2.634733     -1.878208      0.431285
  C      -0.928285      0.481894     -1.725706
  C       0.388274      0.323905     -2.263145
  H      -1.739728      0.923486     -2.294902
  C       1.404140     -0.000021     -1.366497
  C       2.625250     -0.202480     -2.078043
  S       0.904704      0.410799     -3.880578
  C       2.497203     -0.011838     -3.422631
  H       1.662509      1.203981     -0.639070
  H       3.572080     -0.427765     -1.608529
  H       3.270238     -0.080030     -4.172987
  H      -0.573115     -3.299606     -0.322046
  H      -1.054369     -2.461372      2.226036
  H       1.233886     -1.490968      3.198927
  O       1.788063      2.294621      0.057163
  O       0.595832      1.054252      1.473616
  C       1.178537      2.123587      1.146647
  C       1.169674      3.257437      2.124404
  H       1.045865      4.208206      1.610541
  H       2.133511      3.291300      2.635373
  H       0.390809      3.130375      2.870367
  H       3.173202     -1.841381      1.370608
  H       2.021954     -2.928803     -0.835547
39
Coordinates from ORCA-job reaction4-IEIP_ts_guess_scan_12-14_orca E -1288.407282224019
  Ir      0.608210     -0.743718      0.414330
  C       0.136985     -2.854328      0.361201
  C      -0.119046     -2.409799      1.707350
  C       2.121994     -2.069340      1.242636
  C       1.515161     -2.672976      0.093247
  C       1.101118     -1.941421      2.231305
  N      -1.080079      0.099014     -0.508402
  C      -2.357110      0.268593      0.200111
  C      -3.151355      1.487564     -0.247882
  H      -3.988402      1.632896      0.433083
  H      -3.577397      1.373750     -1.245550
  H      -2.549087      2.396114     -0.225596
  C      -3.179276     -1.009174      0.075485
  H      -2.084645      0.410563      1.247246
  H      -4.087809     -0.928290      0.671022
  H      -3.473156     -1.186760     -0.959807
  H      -2.632682     -1.882903      0.426707
  C      -0.927239      0.485744     -1.724168
  C       0.387431      0.328105     -2.264029
  H      -1.739275      0.929522     -2.290806
  C       1.400827     -0.010934     -1.370324
  C       2.623694     -0.204243     -2.081104
  S       0.906307      0.430564     -3.879908
  C       2.499741      0.011655     -3.422506
  H       1.669059      1.208464     -0.650204
  H       3.568968     -0.438327     -1.612895
  H       3.275375     -0.042619     -4.171360
  H      -0.580071     -3.301022     -0.311949
  H      -1.058929     -2.459349      2.235170
  H       1.231050     -1.491273      3.205365
  O       1.792640      2.296387      0.050617
  O       0.601356      1.055903      1.467879
  C       1.183680      2.123609      1.141066
  C       1.178171      3.258674      2.117532
  H       1.054519      4.209273      1.603365
  H       2.142980      3.291869      2.626725
  H       0.400551      3.132950      2.865071
  H       3.169315     -1.848119      1.377534
  H       2.015795     -2.937427     -0.826817
39
Coordinates from ORCA-job reaction4-IEIP_ts_guess_scan_12-14_orca E -1288.407317925732
  Ir      0.607364     -0.746530      0.414686
  C       0.134580     -2.855229      0.364635
  C      -0.122952     -2.409732      1.710277
  C       2.118987     -2.070543      1.247681
  C       1.513565     -2.675201      0.098256
  C       1.096810     -1.941203      2.235410
  N      -1.079627      0.097676     -0.509265
  C      -2.357056      0.265384      0.199470
  C      -3.152490      1.484124     -0.246785
  H      -3.989218      1.627642      0.434913
  H      -3.579134      1.371220     -1.244345
  H      -2.551100      2.393246     -0.223619
  C      -3.178227     -1.012847      0.073194
  H      -2.084921      0.406424      1.246838
  H      -4.087112     -0.933038      0.668299
  H      -3.471387     -1.189668     -0.962444
  H      -2.631318     -1.886575      0.423920
  C      -0.926996      0.488440     -1.722638
  C       0.386876      0.331351     -2.262189
  H      -1.738696      0.935088     -2.287668
  C       1.399697     -0.015670     -1.370884
  C       2.623030     -0.203761     -2.081919
  S       0.908383      0.450518     -3.876245
  C       2.499708      0.021854     -3.422028
  H       1.671964      1.209137     -0.656987
  H       3.567311     -0.445121     -1.615482
  H       3.275423     -0.028548     -4.171086
  H      -0.581785     -3.302224     -0.309072
  H      -1.063904     -2.457489      2.236341
  H       1.225886     -1.489795      3.208977
  O       1.794179      2.295953      0.045789
  O       0.604768      1.056258      1.463264
  C       1.186427      2.123308      1.136473
  C       1.183367      3.259245      2.112460
  H       1.059364      4.209651      1.598090
  H       2.149081      3.292083      2.619955
  H       0.407077      3.134511      2.861586
  H       3.166262     -1.849814      1.383790
  H       2.015181     -2.940933     -0.820907
39
Coordinates from ORCA-job reaction4-IEIP_ts_guess_scan_12-14_orca E -1288.407340575194
  Ir      0.606632     -0.749765      0.415054
  C       0.133798     -2.856956      0.366063
  C      -0.126750     -2.409909      1.710831
  C       2.116402     -2.071269      1.252769
  C       1.513708     -2.677386      0.102734
  C       1.091957     -1.940681      2.238521
  N      -1.079891      0.096298     -0.509520
  C      -2.357434      0.262539      0.199959
  C      -3.153215      1.481886     -0.243882
  H      -3.989297      1.623925      0.438938
  H      -3.580870      1.370725     -1.241219
  H      -2.552058      2.391134     -0.219570
  C      -3.178423     -1.015513      0.071067
  H      -2.085303      0.401922      1.247533
  H      -4.087624     -0.936559      0.665811
  H      -3.471057     -1.190567     -0.965012
  H      -2.631942     -1.889970      0.420546
  C      -0.927166      0.490748     -1.721122
  C       0.386754      0.333355     -2.259586
  H      -1.737892      0.940098     -2.285387
  C       1.399614     -0.018425     -1.370030
  C       2.623073     -0.202486     -2.081691
  S       0.909652      0.463209     -3.872536
  C       2.500080      0.030449     -3.420794
  H       1.673453      1.208394     -0.663299
  H       3.566910     -0.448299     -1.616721
  H       3.275842     -0.016146     -4.170052
  H      -0.580935     -3.304861     -0.308781
  H      -1.069194     -2.456438      2.234331
  H       1.218963     -1.488042      3.211760
  O       1.794551      2.295233      0.039635
  O       0.608294      1.056108      1.458829
  C       1.189127      2.123088      1.131091
  C       1.187963      3.259636      2.106749
  H       1.062495      4.209702      1.592132
  H       2.154844      3.292810      2.611967
  H       0.413520      3.135295      2.857866
  H       3.163367     -1.850192      1.390820
  H       2.017420     -2.943898     -0.815063
39
Coordinates from ORCA-job reaction4-IEIP_ts_guess_scan_12-14_orca E -1288.407352362240
  Ir      0.606211     -0.751800      0.415087
  C       0.134217     -2.858615      0.366176
  C      -0.129403     -2.410469      1.710162
  C       2.114600     -2.071330      1.256777
  C       1.514826     -2.678868      0.106029
  C       1.087818     -1.940320      2.240367
  N      -1.080370      0.095491     -0.509071
  C      -2.357776      0.260917      0.200878
  C      -3.153429      1.480936     -0.241319
  H      -3.989264      1.622136      0.442000
  H      -3.581407      1.371187     -1.238675
  H      -2.552219      2.390118     -0.215908
  C      -3.178796     -1.016872      0.069956
  H      -2.085471      0.398959      1.248570
  H      -4.088171     -0.938575      0.664541
  H      -3.471183     -1.190395     -0.966440
  H      -2.632669     -1.892015      0.418266
  C      -0.927467      0.492206     -1.719987
  C       0.386851      0.334731     -2.258032
  H      -1.737479      0.943273     -2.283862
  C       1.399735     -0.019328     -1.369292
  C       2.623081     -0.201630     -2.081691
  S       0.909942      0.469309     -3.870556
  C       2.500193      0.035279     -3.420187
  H       1.674231      1.208595     -0.668126
  H       3.566851     -0.449289     -1.617556
  H       3.275959     -0.009161     -4.169570
  H      -0.578687     -3.307744     -0.309777
  H      -1.073112     -2.456732      2.231415
  H       1.212483     -1.486977      3.213565
  O       1.794619      2.295604      0.034667
  O       0.610684      1.055990      1.455633
  C       1.190899      2.123216      1.126930
  C       1.190812      3.259510      2.102913
  H       1.063851      4.209556      1.588608
  H       2.158613      3.293016      2.606339
  H       0.417829      3.134701      2.855441
  H       3.161165     -1.849598      1.396864
  H       2.020803     -2.945825     -0.810396
39
Coordinates from ORCA-job reaction4-IEIP_ts_guess_scan_12-14_orca E -1288.407360969616
  Ir      0.606129     -0.753136      0.414940
  C       0.135836     -2.860328      0.365542
  C      -0.131567     -2.411486      1.708718
  C       2.113192     -2.070748      1.261053
  C       1.517110     -2.679843      0.109322
  C       1.083531     -1.940053      2.241956
  N      -1.080940      0.095127     -0.508286
  C      -2.358216      0.259856      0.201880
  C      -3.153569      1.480674     -0.238650
  H      -3.989474      1.621052      0.444767
  H      -3.581363      1.372497     -1.236249
  H      -2.552210      2.389711     -0.211742
  C      -3.179393     -1.017599      0.068837
  H      -2.085746      0.396366      1.249728
  H      -4.088823     -0.940136      0.663466
  H      -3.471737     -1.189315     -0.967865
  H      -2.633501     -1.893494      0.415610
  C      -0.927898      0.493414     -1.718927
  C       0.386795      0.336001     -2.257135
  H      -1.737438      0.945656     -2.282484
  C       1.399743     -0.019307     -1.368841
  C       2.622767     -0.201242     -2.082225
  S       0.909264      0.472362     -3.869599
  C       2.499661      0.037711     -3.420315
  H       1.674778      1.209895     -0.672637
  H       3.566679     -0.449587     -1.618718
  H       3.275264     -0.005764     -4.169916
  H      -0.574700     -3.311115     -0.311777
  H      -1.076646     -2.458191      2.227456
  H       1.205150     -1.486296      3.215340
  O       1.794699      2.296870      0.030289
  O       0.612887      1.056081      1.452935
  C       1.192545      2.123636      1.123404
  C       1.193231      3.259173      2.100166
  H       1.064705      4.209460      1.586654
  H       2.161890      3.292994      2.601923
  H       0.421605      3.133320      2.853885
  H       3.159204     -1.848038      1.403715
  H       2.025926     -2.946985     -0.805481
39
Coordinates from ORCA-job reaction4-IEIP_ts_guess_scan_12-14_orca E -1288.407365045481
  Ir      0.606323     -0.753430      0.414682
  C       0.138169     -2.861359      0.364264
  C      -0.132964     -2.412568      1.706817
  C       2.112360     -2.069463      1.264739
  C       1.519959     -2.679730      0.111875
  C       1.079916     -1.939831      2.243084
  N      -1.081285      0.095248     -0.507607
  C      -2.358492      0.259440      0.202594
  C      -3.153568      1.480943     -0.236511
  H      -3.989717      1.620595      0.446753
  H      -3.580939      1.374140     -1.234434
  H      -2.552053      2.389832     -0.208157
  C      -3.179821     -1.017754      0.067858
  H      -2.085932      0.394569      1.250604
  H      -4.089091     -0.941204      0.662850
  H      -3.472456     -1.187790     -0.969040
  H      -2.633848     -1.894258      0.412978
  C      -0.928367      0.494041     -1.718242
  C       0.386390      0.336761     -2.257067
  H      -1.737876      0.946646     -2.281546
  C       1.399492     -0.018708     -1.368930
  C       2.622070     -0.201555     -2.083220
  S       0.907766      0.472250     -3.869774
  C       2.498468      0.037282     -3.421191
  H       1.674932      1.211657     -0.675577
  H       3.566210     -0.449739     -1.620066
  H       3.273735     -0.006588     -4.171112
  H      -0.569995     -3.313671     -0.314497
  H      -1.079296     -2.460199      2.223185
  H       1.198449     -1.486009      3.216818
  O       1.794844      2.298273      0.027906
  O       0.614315      1.056380      1.451392
  C       1.193663      2.124129      1.121552
  C       1.194925      3.258853      2.099185
  H       1.065441      4.209531      1.586608
  H       2.164150      3.292722      2.599857
  H       0.424167      3.132010      2.853606
  H       3.157787     -1.845680      1.409981
  H       2.031539     -2.946576     -0.801476
39
Coordinates from ORCA-job reaction4-IEIP_ts_guess_scan_12-14_orca E -1288.407367126493
  Ir      0.606705     -0.753148      0.414388
  C       0.141715     -2.862002      0.362154
  C      -0.134213     -2.413983      1.704089
  C       2.111736     -2.067178      1.269136
  C       1.524091     -2.678526      0.114615
  C       1.075810     -1.939562      2.244359
  N      -1.081562      0.095546     -0.507003
  C      -2.358733      0.259140      0.203251
  C      -3.153329      1.481611     -0.233954
  H      -3.989766      1.620380      0.449125
  H      -3.580221      1.376657     -1.232275
  H      -2.551486      2.390222     -0.203763
  C      -3.180411     -1.017640      0.066413
  H      -2.086138      0.392417      1.251497
  H      -4.089262     -0.942301      0.662190
  H      -3.473767     -1.185370     -0.970663
  H      -2.634212     -1.894960      0.409116
  C      -0.929093      0.494268     -1.717719
  C       0.385456      0.337112     -2.257484
  H      -1.738892      0.946765     -2.280722
  C       1.398873     -0.017934     -1.369466
  C       2.620843     -0.202491     -2.084717
  S       0.905360      0.470224     -3.870649
  C       2.496449      0.034923     -3.422741
  H       1.674686      1.213666     -0.677966
  H       3.565271     -0.450167     -1.621856
  H       3.271173     -0.010184     -4.173144
  H      -0.563404     -3.316016     -0.318619
  H      -1.082135     -2.463066      2.217405
  H       1.190347     -1.485890      3.218640
  O       1.795059      2.299624      0.026452
  O       0.615508      1.056888      1.450392
  C       1.194715      2.124670      1.120516
  C       1.196770      3.258663      2.098986
  H       1.066689      4.209796      1.587388
  H       2.166490      3.292353      2.598724
  H       0.426734      3.131019      2.853999
  H       3.156372     -1.841905      1.417710
  H       2.039141     -2.944431     -0.797064
39
Coordinates from ORCA-job reaction4-IEIP_ts_guess_scan_12-14_orca E -1288.407367932534
  Ir      0.607122     -0.752526      0.414147
  C       0.146298     -2.862224      0.359241
  C      -0.135529     -2.415723      1.700568
  C       2.111152     -2.063956      1.274388
  C       1.529386     -2.676220      0.117626
  C       1.071032     -1.939277      2.245918
  N      -1.081808      0.095718     -0.506546
  C      -2.358914      0.258668      0.203946
  C      -3.152689      1.482567     -0.230660
  H      -3.989279      1.620337      0.452425
  H      -3.579313      1.380138     -1.229357
  H      -2.550211      2.390675     -0.198270
  C      -3.181265     -1.017427      0.064414
  H      -2.086287      0.389476      1.252493
  H      -4.089403     -0.943558      0.661448
  H      -3.475845     -1.182048     -0.972820
  H      -2.634814     -1.895900      0.403789
  C      -0.930143      0.493939     -1.717402
  C       0.383991      0.336848     -2.258216
  H      -1.740485      0.945976     -2.280042
  C       1.397872     -0.017456     -1.370395
  C       2.619180     -0.203888     -2.086501
  S       0.902396      0.467103     -3.871935
  C       2.493849      0.031495     -3.424689
  H       1.673931      1.215287     -0.679855
  H       3.563898     -0.451006     -1.623915
  H       3.267916     -0.015149     -4.175672
  H      -0.555094     -3.317985     -0.324192
  H      -1.085444     -2.466628      2.210018
  H       1.180662     -1.485943      3.220916
  O       1.795303      2.300475      0.025578
  O       0.616444      1.057559      1.449860
  C       1.195719      2.125158      1.120014
  C       1.198965      3.258769      2.098976
  H       1.068691      4.210249      1.588076
  H       2.169139      3.292056      2.597863
  H       0.429551      3.130858      2.854583
  H       3.154783     -1.836790      1.427090
  H       2.048615     -2.940457     -0.792170
39
Coordinates from ORCA-job reaction4-IEIP_ts_guess_scan_12-14_orca E -1288.407368470292
  Ir      0.607508     -0.751789      0.414044
  C       0.152148     -2.862170      0.355433
  C      -0.137137     -2.417981      1.696092
  C       2.110446     -2.059733      1.281074
  C       1.536159     -2.672817      0.121314
  C       1.065094     -1.939041      2.248015
  N      -1.082137      0.095449     -0.506146
  C      -2.359098      0.257720      0.204871
  C      -3.151395      1.483854     -0.226023
  H      -3.987906      1.620521      0.457379
  H      -3.578074      1.385087     -1.225067
  H      -2.547729      2.391056     -0.190824
  C      -3.182716     -1.017175      0.061578
  H      -2.086404      0.385061      1.253811
  H      -4.089808     -0.945067      0.660405
  H      -3.479113     -1.177418     -0.975829
  H      -2.636193     -1.897401      0.396334
  C      -0.931669      0.492835     -1.717245
  C       0.381915      0.335740     -2.259138
  H      -1.742774      0.944119     -2.279445
  C       1.396437     -0.017683     -1.371701
  C       2.617108     -0.205589     -2.088519
  S       0.898963      0.463463     -3.873447
  C       2.490739      0.027748     -3.426911
  H       1.672522      1.216100     -0.681544
  H       3.562122     -0.452200     -1.626258
  H       3.264090     -0.020236     -4.178546
  H      -0.544537     -3.319809     -0.331535
  H      -1.089637     -2.471083      2.200484
  H       1.168547     -1.486253      3.223931
  O       1.795534      2.300609      0.024648
  O       0.617260      1.058399      1.449609
  C       1.196806      2.125574      1.119559
  C       1.201795      3.259291      2.098467
  H       1.071625      4.210887      1.587777
  H       2.172468      3.292011      2.596419
  H       0.433043      3.131822      2.854838
  H       3.152767     -1.830163      1.439054
  H       2.060602     -2.934548     -0.786217
39
Coordinates from ORCA-job reaction4-IEIP_ts_guess_scan_12-14_orca E -1288.407369580358
  Ir      0.607732     -0.751267      0.414152
  C       0.158006     -2.862014      0.351576
  C      -0.138904     -2.420354      1.691575
  C       2.109585     -2.055537      1.288123
  C       1.543004     -2.669233      0.125193
  C       1.058915     -1.938968      2.250338
  N      -1.082551      0.094571     -0.505743
  C      -2.359285      0.256283      0.206004
  C      -3.149554      1.485205     -0.220600
  H      -3.985728      1.620933      0.463418
  H      -3.576633      1.390754     -1.219893
  H      -2.544235      2.391169     -0.182402
  C      -3.184650     -1.016994      0.058384
  H      -2.086474      0.379661      1.255355
  H      -4.090604     -0.946585      0.659137
  H      -3.483069     -1.172257     -0.979203
  H      -2.638403     -1.899356      0.388027
  C      -0.933407      0.490993     -1.717212
  C       0.379695      0.333852     -2.259941
  H      -1.745299      0.941392     -2.279016
  C       1.394913     -0.018885     -1.373072
  C       2.615194     -0.206989     -2.090293
  S       0.895938      0.460678     -3.874687
  C       2.487946      0.025322     -3.428811
  H       1.670731      1.215600     -0.682909
  H       3.560477     -0.453269     -1.628407
  H       3.260753     -0.023042     -4.180985
  H      -0.533853     -3.321315     -0.339134
  H      -1.094120     -2.475493      2.190609
  H       1.156097     -1.486854      3.227197
  O       1.795719      2.299911      0.023240
  O       0.617923      1.059249      1.449469
  C       1.197864      2.125851      1.118746
  C       1.204803      3.260195      2.096958
  H       1.074889      4.211570      1.585819
  H       2.175967      3.292383      2.593980
  H       0.436705      3.133840      2.854199
  H       3.150537     -1.823595      1.451599
  H       2.072745     -2.928213     -0.780049
39
Coordinates from ORCA-job reaction4-IEIP_ts_guess_scan_12-14_orca E -1288.407371837054
  Ir      0.607807     -0.751188      0.414429
  C       0.162353     -2.862059      0.348807
  C      -0.140437     -2.422253      1.688245
  C       2.108753     -2.052650      1.293885
  C       1.548151     -2.666753      0.128490
  C       1.053971     -1.939079      2.252329
  N      -1.082975      0.093314     -0.505253
  C      -2.359470      0.254726      0.207143
  C      -3.147615      1.486324     -0.215675
  H      -3.983366      1.621521      0.468987
  H      -3.575171      1.395807     -1.215129
  H      -2.540568      2.391004     -0.174904
  C      -3.186655     -1.016887      0.055614
  H      -2.086540      0.374583      1.256837
  H      -4.091761     -0.947672      0.657796
  H      -3.486634     -1.167799     -0.982161
  H      -2.641049     -1.901257      0.381011
  C      -0.934870      0.488913     -1.717160
  C       0.377977      0.331755     -2.260344
  H      -1.747345      0.938519     -2.278754
  C       1.393792     -0.020698     -1.374095
  C       2.614016     -0.207544     -2.091450
  S       0.894026      0.459714     -3.875265
  C       2.486207      0.025210     -3.429926
  H       1.669166      1.214064     -0.683895
  H       3.559536     -0.453646     -1.629962
  H       3.258785     -0.022349     -4.182392
  H      -0.525759     -3.322535     -0.344843
  H      -1.097809     -2.478724      2.183007
  H       1.146375     -1.487590      3.229928
  O       1.795829      2.298806      0.021293
  O       0.618467      1.059887      1.449200
  C       1.198716      2.125986      1.117409
  C       1.207153      3.261167      2.094619
  H       1.077388      4.212101      1.582637
  H       2.178705      3.293110      2.590890
  H       0.439596      3.136057      2.852624
  H       3.148641     -1.819025      1.461699
  H       2.081985     -2.923670     -0.774935
39
Coordinates from ORCA-job reaction4-IEIP_ts_guess_scan_12-14_orca E -1288.407374234573
  Ir      0.607844     -0.751419      0.414676
  C       0.164241     -2.862372      0.347730
  C      -0.141406     -2.423171      1.686790
  C       2.108178     -2.051696      1.296978
  C       1.550458     -2.666062      0.130444
  C       1.051355     -1.939230      2.253439
  N      -1.083217      0.092371     -0.504753
  C      -2.359573      0.253683      0.207938
  C      -3.146322      1.486933     -0.212702
  H      -3.981824      1.621981      0.472307
  H      -3.574105      1.398764     -1.212266
  H      -2.538146      2.390778     -0.170405
  C      -3.187923     -1.016860      0.054064
  H      -2.086576      0.371470      1.257830
  H      -4.092719     -0.948170      0.656784
  H      -3.488526     -1.165328     -0.983880
  H      -2.642932     -1.902439      0.377269
  C      -0.935588      0.487502     -1.716995
  C       0.377215      0.330402     -2.260341
  H      -1.748322      0.936614     -2.278597
  C       1.393374     -0.022121     -1.374534
  C       2.613715     -0.207316     -2.091956
  S       0.893319      0.460281     -3.875233
  C       2.485652      0.026640     -3.430271
  H       1.668474      1.212650     -0.684500
  H       3.559418     -0.453329     -1.630801
  H       3.258256     -0.019714     -4.182790
  H      -0.522038     -3.323433     -0.347334
  H      -1.099865     -2.480068      2.179416
  H       1.141508     -1.488116      3.231415
  O       1.795929      2.298076      0.019493
  O       0.618911      1.060195      1.448731
  C       1.199232      2.126064      1.116007
  C       1.208213      3.261784      2.092535
  H       1.078387      4.212375      1.579928
  H       2.179954      3.293805      2.588429
  H       0.440941      3.137337      2.850932
  H       3.147571     -1.817434      1.466959
  H       2.086309     -2.922235     -0.771997
