39
Generated by autodE on: 2023-08-15. E = -1288.402111 Ha
Ir    0.61554  -0.73629   0.41157
C     0.15645  -2.85276   0.33388
C    -0.09414  -2.40875   1.68145
C     2.14339  -2.06052   1.20742
C     1.52973  -2.66072   0.05745
C     1.13067  -1.94022   2.20297
N    -1.07432   0.11103  -0.50891
C    -2.34498   0.29903   0.20673
C    -3.13708   1.51317  -0.25704
H    -3.96766   1.67404   0.42837
H    -3.57242   1.38304  -1.24875
H    -2.53109   2.41949  -0.25574
C    -3.17208  -0.97811   0.10789
H    -2.06301   0.45663   1.24892
H    -4.07527  -0.88389   0.70948
H    -3.47544  -1.17047  -0.92201
H    -2.62613  -1.84834   0.46857
C    -0.92666   0.47904  -1.72894
C     0.38923   0.30694  -2.26357
H    -1.73632   0.91878  -2.30210
C     1.41464   0.02939  -1.35630
C     2.63363  -0.19675  -2.07068
S     0.89326   0.31912  -3.88263
C     2.49623  -0.06665  -3.41923
H     1.62886   1.15228  -0.66546
H     3.58535  -0.38844  -1.59629
H     3.26374  -0.15790  -4.17278
H    -0.56395  -3.29780  -0.33675
H    -1.03053  -2.46370   2.21511
H     1.26500  -1.49346   3.17798
O     1.74255   2.30578   0.06757
O     0.59011   1.03649   1.48689
C     1.15268   2.12272   1.15399
C     1.12393   3.24432   2.14950
H     1.00441   4.20107   1.64627
H     2.07976   3.27388   2.67542
H     0.33553   3.10619   2.88383
H     3.19029  -1.83255   1.33453
H     2.02544  -2.91591  -0.86787
