39
Coordinates from ORCA-job reaction4-IEIP_ts_guess_scan_9-3_orca E -1288.400121461170
  Ir      0.626568     -0.706957      0.417532
  C       0.111673     -2.812454      0.316162
  C       0.066635     -2.357570      1.680556
  C       2.224652     -2.087272      0.900349
  C       1.422568     -2.636002     -0.167789
  C       1.390267     -1.948115      2.031344
  N      -1.047544      0.150708     -0.524603
  C      -2.309122      0.430242      0.178660
  C      -3.095121      1.587195     -0.419036
  H      -3.914884      1.840703      0.251742
  H      -3.546479      1.340876     -1.381130
  H      -2.480783      2.480261     -0.535570
  C      -3.143358     -0.844000      0.245945
  H      -2.008679      0.704002      1.190875
  H      -4.041526     -0.664421      0.835050
  H      -3.455276     -1.165565     -0.748556
  H      -2.600910     -1.661784      0.718110
  C      -0.890478      0.394736     -1.765213
  C       0.441735      0.182326     -2.255037
  H      -1.689223      0.773092     -2.395854
  C       1.510702      0.269915     -1.362100
  C       2.725329     -0.083425     -2.026125
  S       0.901204     -0.306795     -3.812841
  C       2.545963     -0.413571     -3.332358
  H       1.511601      1.223634     -0.629108
  H       3.698893     -0.038657     -1.559988
  H       3.296511     -0.690809     -4.057005
  H      -0.721293     -3.205659     -0.248707
  H      -0.781939     -2.399898      2.346774
  H       1.684450     -1.528200      2.982784
  O       1.405637      2.437512      0.169978
  O       0.548695      0.960521      1.599442
  C       0.959747      2.135701      1.278928
  C       0.896748      3.155552      2.380978
  H       0.856415      4.162188      1.973832
  H       1.801568      3.077429      2.986798
  H       0.048690      2.983909      3.040155
  H       3.279477     -1.862597      0.857268
  H       1.770256     -2.877561     -1.161501
39
Coordinates from ORCA-job reaction4-IEIP_ts_guess_scan_9-3_orca E -1288.400053447906
  Ir      0.623044     -0.699063      0.412813
  C       0.113907     -2.808543      0.318611
  C       0.068471     -2.352169      1.682347
  C       2.224301     -2.075597      0.900547
  C       1.423960     -2.629384     -0.166135
  C       1.389617     -1.936577      2.031043
  N      -1.057847      0.148981     -0.528678
  C      -2.319469      0.427512      0.175059
  C      -3.110258      1.578623     -0.427638
  H      -3.930487      1.832213      0.242504
  H      -3.561294      1.325928     -1.388239
  H      -2.499489      2.473530     -0.548936
  C      -3.149128     -0.849267      0.249401
  H      -2.019011      0.707300      1.185627
  H      -4.047453     -0.669982      0.838348
  H      -3.460770     -1.176852     -0.743233
  H      -2.603454     -1.662805      0.725135
  C      -0.900671      0.386998     -1.775293
  C       0.435342      0.178166     -2.267678
  H      -1.701213      0.759488     -2.407110
  C       1.502697      0.271087     -1.372707
  C       2.720155     -0.079269     -2.033759
  S       0.899299     -0.313967     -3.823044
  C       2.543971     -0.414565     -3.339114
  H       1.502276      1.245144     -0.657155
  H       3.693054     -0.027546     -1.566784
  H       3.296827     -0.691177     -4.061525
  H      -0.717881     -3.206086     -0.245005
  H      -0.779330     -2.396446      2.349342
  H       1.682684     -1.514013      2.981647
  O       1.517774      2.409524      0.218770
  O       0.534213      0.969936      1.598820
  C       0.998566      2.130040      1.301770
  C       0.910205      3.155409      2.396611
  H       0.927455      4.161466      1.986324
  H       1.776850      3.048090      3.051759
  H       0.021487      3.015326      3.007837
  H       3.278661     -1.848908      0.857480
  H       1.772310     -2.873358     -1.159020
39
Coordinates from ORCA-job reaction4-IEIP_ts_guess_scan_9-3_orca E -1288.399817362271
  Ir      0.632031     -0.706395      0.414780
  C       0.108826     -2.816524      0.319143
  C       0.067608     -2.366988      1.685091
  C       2.222613     -2.097783      0.902211
  C       1.419530     -2.643722     -0.166093
  C       1.388507     -1.957523      2.032788
  N      -1.048981      0.154309     -0.516885
  C      -2.310247      0.431296      0.187927
  C      -3.095862      1.590352     -0.406430
  H      -3.917108      1.840320      0.263769
  H      -3.544941      1.347679     -1.370564
  H      -2.482308      2.484649     -0.518026
  C      -3.144811     -0.842895      0.249060
  H      -2.010582      0.700870      1.201513
  H      -4.043853     -0.665550      0.837490
  H      -3.455458     -1.160455     -0.747163
  H      -2.603376     -1.662702      0.718753
  C      -0.883894      0.406350     -1.769035
  C       0.457176      0.195906     -2.269738
  H      -1.682021      0.789839     -2.397228
  C       1.523784      0.256429     -1.368702
  C       2.738561     -0.104055     -2.030584
  S       0.920255     -0.278514     -3.830481
  C       2.561752     -0.416501     -3.341329
  H       1.552508      1.252777     -0.663691
  H       3.710849     -0.072467     -1.560234
  H       3.312949     -0.694490     -4.064804
  H      -0.725269     -3.208383     -0.245120
  H      -0.779391     -2.409779      2.353034
  H       1.684179     -1.540199      2.984884
  O       1.330916      2.438221      0.154163
  O       0.546557      0.960679      1.613651
  C       0.928919      2.139460      1.281912
  C       0.885736      3.165421      2.378154
  H       0.815936      4.168866      1.966891
  H       1.810848      3.105270      2.954562
  H       0.062253      2.983842      3.064960
  H       3.278729     -1.879368      0.861238
  H       1.766450     -2.889053     -1.159128
39
Coordinates from ORCA-job reaction4-IEIP_ts_guess_scan_9-3_orca E -1288.400390050110
  Ir      0.625111     -0.706747      0.416968
  C       0.103862     -2.814337      0.328147
  C       0.062048     -2.357940      1.691677
  C       2.218098     -2.091709      0.907311
  C       1.414629     -2.642560     -0.158236
  C       1.384283     -1.947279      2.038048
  N      -1.051278      0.149049     -0.522328
  C      -2.313861      0.424138      0.179462
  C      -3.101864      1.579705     -0.418340
  H      -3.924355      1.829382      0.250534
  H      -3.549513      1.333459     -1.382202
  H      -2.490213      2.475023     -0.531640
  C      -3.144832     -0.852413      0.243081
  H      -2.015534      0.696871      1.192558
  H      -4.044734     -0.676128      0.830561
  H      -3.453843     -1.173252     -0.752551
  H      -2.601243     -1.669467      0.715152
  C      -0.891104      0.399012     -1.767289
  C       0.444982      0.192927     -2.264121
  H      -1.690874      0.779602     -2.395076
  C       1.512469      0.261020     -1.366031
  C       2.728846     -0.086438     -2.031357
  S       0.907631     -0.276516     -3.826342
  C       2.552289     -0.392866     -3.343693
  H       1.524065      1.232714     -0.641104
  H       3.701355     -0.050120     -1.562175
  H       3.304253     -0.659513     -4.070817
  H      -0.730300     -3.208312     -0.234426
  H      -0.785388     -2.397194      2.359386
  H       1.679999     -1.525057      2.987974
  O       1.425118      2.438457      0.171090
  O       0.549421      0.965944      1.596799
  C       0.970456      2.137549      1.278405
  C       0.907275      3.159259      2.377819
  H       0.875016      4.165654      1.969320
  H       1.808033      3.076536      2.988976
  H       0.054199      2.992794      3.031692
  H       3.273807     -1.871476      0.864264
  H       1.761060     -2.890583     -1.150754
39
Coordinates from ORCA-job reaction4-IEIP_ts_guess_scan_9-3_orca E -1288.400424249749
  Ir      0.625525     -0.707236      0.417091
  C       0.105081     -2.815134      0.330285
  C       0.061980     -2.358459      1.693497
  C       2.218487     -2.091369      0.910469
  C       1.416228     -2.643249     -0.155285
  C       1.383463     -1.946651      2.040323
  N      -1.051027      0.147632     -0.523626
  C      -2.313423      0.423488      0.178566
  C      -3.101599      1.579446     -0.418365
  H      -3.923379      1.829325      0.251288
  H      -3.550298      1.333484     -1.381788
  H      -2.489773      2.474595     -0.532103
  C      -3.145405     -0.852412      0.243126
  H      -2.014410      0.696233      1.191542
  H      -4.045056     -0.675121      0.830707
  H      -3.454879     -1.173498     -0.752278
  H      -2.602422     -1.669611      0.715520
  C      -0.891108      0.398302     -1.768479
  C       0.444400      0.193323     -2.266555
  H      -1.691196      0.779563     -2.395388
  C       1.511572      0.257950     -1.367957
  C       2.727930     -0.086847     -2.034474
  S       0.907706     -0.264631     -3.831794
  C       2.551108     -0.390736     -3.347411
  H       1.525136      1.234495     -0.648042
  H       3.700293     -0.053701     -1.564794
  H       3.302794     -0.657050     -4.074910
  H      -0.728365     -3.209870     -0.232798
  H      -0.786033     -2.397421      2.360475
  H       1.678234     -1.523600      2.990183
  O       1.431365      2.433446      0.174752
  O       0.546417      0.966105      1.597103
  C       0.969854      2.136286      1.280180
  C       0.906768      3.159391      2.378575
  H       0.879425      4.165568      1.969199
  H       1.805229      3.074024      2.992797
  H       0.050983      2.996487      3.029827
  H       3.274235     -1.871123      0.868531
  H       1.763530     -2.892231     -1.147246
39
Coordinates from ORCA-job reaction4-IEIP_ts_guess_scan_9-3_orca E -1288.400451947913
  Ir      0.625845     -0.710539      0.418821
  C       0.102990     -2.817836      0.336298
  C       0.059175     -2.360092      1.698869
  C       2.216594     -2.095678      0.916958
  C       1.414868     -2.648201     -0.148638
  C       1.380325     -1.948518      2.045722
  N      -1.049533      0.145448     -0.524258
  C      -2.311959      0.421543      0.178237
  C      -3.099778      1.579085     -0.416201
  H      -3.920896      1.828287      0.254484
  H      -3.549413      1.335106     -1.379677
  H      -2.487521      2.474104     -0.528783
  C      -3.145499     -0.853452      0.241584
  H      -2.012580      0.692679      1.191596
  H      -4.045118     -0.675550      0.829032
  H      -3.455056     -1.173291     -0.754196
  H      -2.603702     -1.671686      0.713471
  C      -0.889646      0.398551     -1.768808
  C       0.444800      0.194556     -2.269027
  H      -1.690210      0.781228     -2.394252
  C       1.511204      0.250258     -1.368935
  C       2.728165     -0.087014     -2.038168
  S       0.908552     -0.250073     -3.837673
  C       2.552538     -0.374699     -3.354998
  H       1.526980      1.231587     -0.652595
  H       3.700211     -0.058392     -1.567570
  H       3.304892     -0.631058     -4.085352
  H      -0.730252     -3.212526     -0.227130
  H      -0.789594     -2.396748      2.364982
  H       1.674710     -1.524161      2.995131
  O       1.431807      2.429373      0.171734
  O       0.547278      0.965575      1.596491
  C       0.971847      2.134121      1.278574
  C       0.906963      3.160906      2.373649
  H       0.878565      4.165813      1.961255
  H       1.805280      3.078450      2.988481
  H       0.051118      2.998938      3.025105
  H       3.272753     -1.877232      0.876301
  H       1.762669     -2.899672     -1.139776
39
Coordinates from ORCA-job reaction4-IEIP_ts_guess_scan_9-3_orca E -1288.400474505777
  Ir      0.624835     -0.714743      0.421873
  C       0.098808     -2.820749      0.345746
  C       0.053432     -2.360615      1.707195
  C       2.212555     -2.100517      0.927607
  C       1.411922     -2.654407     -0.137858
  C       1.374173     -1.949293      2.054525
  N      -1.048028      0.141947     -0.524958
  C      -2.311082      0.416146      0.177395
  C      -3.098786      1.575643     -0.413444
  H      -3.919956      1.822451      0.258039
  H      -3.548350      1.334888     -1.377764
  H      -2.486647      2.471144     -0.522929
  C      -3.145162     -0.858723      0.236501
  H      -2.012471      0.684253      1.191790
  H      -4.045507     -0.681857      0.823126
  H      -3.453469     -1.175919     -0.760518
  H      -2.604377     -1.678375      0.707080
  C      -0.888274      0.400302     -1.768315
  C       0.444836      0.199722     -2.271231
  H      -1.689603      0.785715     -2.391163
  C       1.510122      0.240444     -1.368922
  C       2.727940     -0.085916     -2.042153
  S       0.910734     -0.215528     -3.846869
  C       2.553593     -0.351914     -3.363791
  H       1.527956      1.223906     -0.651981
  H       3.699289     -0.067702     -1.569625
  H       3.306421     -0.597465     -4.097357
  H      -0.733937     -3.215576     -0.218345
  H      -0.796727     -2.393532      2.371688
  H       1.667686     -1.522478      3.003115
  O       1.431334      2.427732      0.163329
  O       0.549298      0.966533      1.593283
  C       0.972462      2.133927      1.271615
  C       0.913880      3.162986      2.365059
  H       0.885032      4.167198      1.951085
  H       1.814763      3.080329      2.976116
  H       0.060692      3.003215      3.020537
  H       3.269254     -1.884391      0.888936
  H       1.760731     -2.909592     -1.127676
39
Coordinates from ORCA-job reaction4-IEIP_ts_guess_scan_9-3_orca E -1288.400481685347
  Ir      0.624637     -0.715751      0.423037
  C       0.097358     -2.820992      0.347768
  C       0.050923     -2.359948      1.708932
  C       2.211159     -2.101967      0.931375
  C       1.411165     -2.655877     -0.134581
  C       1.371722     -1.949327      2.057339
  N      -1.047205      0.141299     -0.524454
  C      -2.310427      0.414097      0.178149
  C      -3.097936      1.574574     -0.411060
  H      -3.919248      1.820216      0.260689
  H      -3.547246      1.335459     -1.375912
  H      -2.485785      2.470252     -0.518932
  C      -3.144393     -0.860961      0.234424
  H      -2.012348      0.680544      1.193107
  H      -4.045171     -0.685220      0.820734
  H      -3.451984     -1.176432     -0.763363
  H      -2.603866     -1.681440      0.703846
  C      -0.888031      0.401558     -1.767466
  C       0.444437      0.201519     -2.271542
  H      -1.689862      0.787654     -2.389222
  C       1.509890      0.236714     -1.369224
  C       2.727517     -0.086699     -2.044063
  S       0.910269     -0.204925     -3.849492
  C       2.552981     -0.344685     -3.367296
  H       1.528681      1.219025     -0.649834
  H       3.698835     -0.072571     -1.571348
  H       3.305652     -0.586526     -4.102257
  H      -0.735008     -3.215567     -0.217049
  H      -0.800024     -2.391557      2.372478
  H       1.664660     -1.521913      3.005834
  O       1.437950      2.425443      0.162317
  O       0.550673      0.966879      1.592383
  C       0.977034      2.133096      1.270278
  C       0.914450      3.164522      2.361152
  H       0.886357      4.167781      1.944814
  H       1.813498      3.083624      2.975105
  H       0.059315      3.005755      3.014302
  H       3.268052     -1.886602      0.893712
  H       1.760691     -2.911864     -1.123938
39
Coordinates from ORCA-job reaction4-IEIP_ts_guess_scan_9-3_orca E -1288.400487660828
  Ir      0.624379     -0.715933      0.424311
  C       0.097062     -2.820763      0.348688
  C       0.048275     -2.358773      1.709606
  C       2.210171     -2.102032      0.935958
  C       1.411841     -2.656106     -0.131225
  C       1.368808     -1.948558      2.060347
  N      -1.046790      0.140789     -0.523937
  C      -2.310325      0.412026      0.178853
  C      -3.097591      1.573634     -0.408589
  H      -3.919071      1.818076      0.263415
  H      -3.546613      1.336336     -1.374018
  H      -2.485364      2.469455     -0.514713
  C      -3.144215     -0.863213      0.231760
  H      -2.012983      0.676625      1.194473
  H      -4.045544     -0.688818      0.817652
  H      -3.450931     -1.176632     -0.766941
  H      -2.604062     -1.684707      0.699801
  C      -0.888261      0.402192     -1.766877
  C       0.443658      0.202354     -2.271902
  H      -1.690694      0.788190     -2.387853
  C       1.509424      0.232990     -1.369930
  C       2.726782     -0.087877     -2.046078
  S       0.909055     -0.198897     -3.851457
  C       2.552026     -0.338343     -3.370793
  H       1.529158      1.213737     -0.647588
  H       3.698180     -0.076588     -1.573479
  H       3.304667     -0.576073     -4.107126
  H      -0.734257     -3.215473     -0.217559
  H      -0.803906     -2.389749      2.371611
  H       1.660261     -1.520673      3.009084
  O       1.443639      2.422458      0.161699
  O       0.550604      0.967612      1.592208
  C       0.978398      2.133140      1.268680
  C       0.916758      3.165842      2.358238
  H       0.890909      4.168604      1.940558
  H       1.815096      3.084045      2.973098
  H       0.060698      3.009417      3.010692
  H       3.267156     -1.886800      0.900030
  H       1.762974     -2.912325     -1.119955
39
Coordinates from ORCA-job reaction4-IEIP_ts_guess_scan_9-3_orca E -1288.400492901341
  Ir      0.624840     -0.715593      0.424881
  C       0.098445     -2.820602      0.347510
  C       0.047344     -2.358530      1.708454
  C       2.210543     -2.101481      0.938502
  C       1.413955     -2.655432     -0.130083
  C       1.367397     -1.948418      2.061575
  N      -1.046383      0.140699     -0.523247
  C      -2.309928      0.411360      0.179930
  C      -3.096614      1.574370     -0.405682
  H      -3.917901      1.818257      0.266762
  H      -3.545831      1.338850     -1.371445
  H      -2.483863      2.469981     -0.510513
  C      -3.144477     -0.863544      0.230312
  H      -2.012746      0.674217      1.196030
  H      -4.045921     -0.689839      0.816249
  H      -3.451067     -1.174983     -0.769048
  H      -2.604911     -1.686238      0.696908
  C      -0.888393      0.402289     -1.766351
  C       0.443210      0.202531     -2.272097
  H      -1.691218      0.788259     -2.386793
  C       1.509427      0.231002     -1.370814
  C       2.726270     -0.089480     -2.047664
  S       0.907991     -0.195768     -3.852789
  C       2.550636     -0.338589     -3.372602
  H       1.530364      1.210639     -0.646438
  H       3.697876     -0.079712     -1.575473
  H       3.302861     -0.576223     -4.109391
  H      -0.731767     -3.215563     -0.220175
  H      -0.805824     -2.390021      2.369180
  H       1.657285     -1.520745      3.010886
  O       1.446759      2.419974      0.162131
  O       0.550433      0.967706      1.593016
  C       0.979823      2.132637      1.268856
  C       0.915533      3.167027      2.356540
  H       0.889724      4.169063      1.937092
  H       1.812888      3.086881      2.973025
  H       0.058430      3.011094      3.007733
  H       3.267500     -1.885859      0.904186
  H       1.766681     -2.911024     -1.118413
39
Coordinates from ORCA-job reaction4-IEIP_ts_guess_scan_9-3_orca E -1288.400498748382
  Ir      0.625442     -0.714789      0.425725
  C       0.101151     -2.820547      0.345408
  C       0.045827     -2.358681      1.706398
  C       2.211109     -2.100051      0.942928
  C       1.417859     -2.654082     -0.128077
  C       1.364652     -1.948203      2.063653
  N      -1.046035      0.140419     -0.522245
  C      -2.309570      0.410539      0.181252
  C      -3.095186      1.575629     -0.401847
  H      -3.916244      1.818886      0.271092
  H      -3.544582      1.342629     -1.368129
  H      -2.481528      2.470836     -0.504813
  C      -3.145244     -0.863752      0.228210
  H      -2.012566      0.670913      1.198025
  H      -4.046692     -0.690955      0.814416
  H      -3.451915     -1.172259     -0.772042
  H      -2.606486     -1.688261      0.692585
  C      -0.888824      0.401512     -1.765730
  C       0.442268      0.202073     -2.272595
  H      -1.692344      0.787034     -2.385568
  C       1.509052      0.228295     -1.372298
  C       2.725243     -0.091534     -2.050118
  S       0.906003     -0.193451     -3.854610
  C       2.548432     -0.338951     -3.375370
  H       1.531853      1.207175     -0.645953
  H       3.697205     -0.082814     -1.578664
  H       3.300190     -0.576087     -4.112794
  H      -0.727018     -3.216192     -0.224773
  H      -0.809003     -2.391616      2.364914
  H       1.651527     -1.520981      3.014087
  O       1.449658      2.416620      0.162595
  O       0.549760      0.968029      1.594492
  C       0.980724      2.132128      1.269121
  C       0.914943      3.168531      2.354730
  H       0.888962      4.169755      1.933329
  H       1.811881      3.090102      2.972025
  H       0.057374      3.013357      3.005480
  H       3.267973     -1.883560      0.911566
  H       1.773519     -2.908506     -1.115667
39
Coordinates from ORCA-job reaction4-IEIP_ts_guess_scan_9-3_orca E -1288.400501458118
  Ir      0.625665     -0.714317      0.426272
  C       0.103147     -2.820769      0.344017
  C       0.044588     -2.359241      1.705037
  C       2.211318     -2.098844      0.946385
  C       1.420737     -2.653205     -0.126367
  C       1.362255     -1.948080      2.065320
  N      -1.046131      0.140052     -0.521670
  C      -2.309699      0.409898      0.181883
  C      -3.094501      1.576339     -0.399676
  H      -3.915511      1.819198      0.273457
  H      -3.543865      1.344977     -1.366362
  H      -2.480212      2.471260     -0.501334
  C      -3.146121     -0.863981      0.226718
  H      -2.012842      0.668654      1.199108
  H      -4.047420     -0.691814      0.813340
  H      -3.453073     -1.170488     -0.774068
  H      -2.607740     -1.689679      0.689446
  C      -0.889378      0.400548     -1.765399
  C       0.441386      0.201479     -2.272934
  H      -1.693375      0.785529     -2.384980
  C       1.508478      0.226847     -1.373148
  C       2.724417     -0.092289     -2.051591
  S       0.904545     -0.192670     -3.855606
  C       2.547022     -0.338584     -3.377049
  H       1.532283      1.205585     -0.646049
  H       3.696597     -0.083672     -1.580592
  H       3.298604     -0.575049     -4.114869
  H      -0.723454     -3.217033     -0.228000
  H      -0.811479     -2.393438      2.361884
  H       1.646704     -1.521106      3.016599
  O       1.451173      2.415165      0.162408
  O       0.549593      0.968474      1.595083
  C       0.981420      2.132013      1.268915
  C       0.915939      3.169372      2.353658
  H       0.889595      4.170251      1.931447
  H       1.813225      3.091692      2.970546
  H       0.058716      3.014578      3.004943
  H       3.268100     -1.881663      0.917327
  H       1.778666     -2.906798     -1.113360
39
Coordinates from ORCA-job reaction4-IEIP_ts_guess_scan_9-3_orca E -1288.400504594971
  Ir      0.625830     -0.713771      0.426965
  C       0.106502     -2.821343      0.341462
  C       0.042219     -2.360619      1.702563
  C       2.211419     -2.096662      0.952325
  C       1.425651     -2.651797     -0.123450
  C       1.357695     -1.947918      2.068110
  N      -1.046498      0.139348     -0.520812
  C      -2.310052      0.408835      0.182850
  C      -3.093496      1.577359     -0.396391
  H      -3.914494      1.819620      0.276965
  H      -3.542720      1.348553     -1.363746
  H      -2.478188      2.471809     -0.495961
  C      -3.147594     -0.864422      0.224540
  H      -2.013363      0.665080      1.200758
  H      -4.048402     -0.693335      0.812226
  H      -3.455385     -1.167685     -0.776986
  H      -2.609518     -1.691980      0.684347
  C      -0.890504      0.398836     -1.764872
  C       0.439765      0.200353     -2.273380
  H      -1.695247      0.782832     -2.384149
  C       1.507330      0.225103     -1.374295
  C       2.722992     -0.092953     -2.053683
  S       0.902088     -0.192189     -3.856819
  C       2.544808     -0.337831     -3.379363
  H       1.532485      1.203857     -0.646616
  H       3.695484     -0.084117     -1.583344
  H       3.296162     -0.573232     -4.117756
  H      -0.717342     -3.218674     -0.233773
  H      -0.816058     -2.397025      2.356402
  H       1.637763     -1.521244      3.020834
  O       1.453292      2.413773      0.161529
  O       0.549726      0.969328      1.595275
  C       0.982785      2.132045      1.268092
  C       0.918444      3.170527      2.351920
  H       0.891039      4.171011      1.928830
  H       1.816784      3.093959      2.967426
  H       0.062315      3.015971      3.004681
  H       3.268047     -1.878285      0.927399
  H       1.787608     -2.903929     -1.109363
