39
Generated by autodE on: 2023-08-13. E = -1288.394048 Ha
Ir    0.56792  -0.73738   0.49398
C     0.01269  -2.81403   0.35405
C     0.09837  -2.37617   1.72717
C     2.18102  -2.15230   0.77529
C     1.27584  -2.64579  -0.23884
C     1.46865  -2.02715   1.97961
N    -1.04090   0.16720  -0.50819
C    -2.31816   0.50355   0.14129
C    -3.13260   1.53946  -0.61649
H    -3.96868   1.85324   0.00691
H    -3.56335   1.14956  -1.54016
H    -2.54963   2.43143  -0.84818
C    -3.11899  -0.76911   0.38731
H    -2.03392   0.92768   1.10596
H    -4.03861  -0.52481   0.91681
H    -3.39415  -1.25205  -0.55132
H    -2.57495  -1.48523   1.00166
C    -0.82430   0.36991  -1.75006
C     0.52883   0.15419  -2.21762
H    -1.60160   0.72444  -2.42131
C     1.63939   0.55928  -1.48860
C     2.83657   0.15048  -2.14241
S     0.93942  -0.64539  -3.67418
C     2.61193  -0.49805  -3.31663
H     1.54602   1.41936  -0.66742
H     3.82741   0.37862  -1.77718
H     3.34272  -0.88237  -4.01217
H    -0.87915  -3.16814  -0.14271
H    -0.68981  -2.41543   2.46492
H     1.85920  -1.64811   2.91306
O     1.31253   2.43359   0.26897
O     0.53949   0.89893   1.69287
C     0.91368   2.09579   1.38136
C     0.86172   3.07998   2.51548
H     0.81648   4.09803   2.13840
H     1.77146   2.98483   3.11158
H     0.02048   2.88926   3.17852
H     3.22468  -1.91691   0.62736
H     1.53167  -2.85118  -1.26834
