39
Generated by autodE on: 2023-08-15. E = -1288.402547 Ha
Ir    0.61070  -0.73355   0.42459
C     0.11877  -2.84456   0.36145
C    -0.07381  -2.38279   1.71109
C     2.15143  -2.08236   1.15137
C     1.47982  -2.67137   0.02492
C     1.18481  -1.93492   2.18204
N    -1.06796   0.11653  -0.51390
C    -2.34249   0.31417   0.19307
C    -3.14336   1.50842  -0.30616
H    -3.97531   1.68284   0.37428
H    -3.57775   1.34511  -1.29337
H    -2.54501   2.41947  -0.33149
C    -3.16111  -0.97049   0.12791
H    -2.06436   0.50224   1.23125
H    -4.07113  -0.86096   0.71645
H    -3.45272  -1.19854  -0.89809
H    -2.61544  -1.82497   0.52453
C    -0.91215   0.47487  -1.73544
C     0.40665   0.30600  -2.26562
H    -1.72014   0.90696  -2.31692
C     1.44320   0.06842  -1.36275
C     2.65772  -0.16854  -2.07715
S     0.89729   0.26976  -3.88955
C     2.50784  -0.08487  -3.42839
H     1.63512   1.14718  -0.62508
H     3.61493  -0.33471  -1.60441
H     3.26967  -0.19313  -4.18542
H    -0.63741  -3.27297  -0.28014
H    -0.98748  -2.42337   2.28408
H     1.36712  -1.48646   3.14852
O     1.74530   2.29535   0.11679
O     0.56536   1.02695   1.51325
C     1.13778   2.11378   1.19157
C     1.09438   3.23135   2.19113
H     0.98038   4.18943   1.68907
H     2.04338   3.26073   2.72924
H     0.29673   3.09059   2.91495
H     3.20525  -1.86517   1.23179
H     1.93338  -2.93720  -0.91872
