! Opt PBEh-3c
%geom Constraints
{ B 0 20 2.257142857142857 C }
{ B 24 30 1.3571428571428572 C }
    end
end
%output 
xyzfile=True 
end 
%scf 
maxiter 250 
end
%output
Print[P_Hirshfeld] = 1
end
% maxcore
4000
*xyz 1 1
Ir   0.61049576  -0.72846140   0.46699680 
C    0.10989448  -2.83117192   0.34873043 
C   -0.02498688  -2.36949352   1.70630699 
C    2.17991026  -2.09871669   1.06891544 
C    1.45125015  -2.65493399  -0.04467978 
C    1.26902784  -1.95468975   2.13954728 
N   -1.04723065   0.12312394  -0.50452215 
C   -2.32273600   0.36855401   0.18869280 
C   -3.09959145   1.55495997  -0.36399309 
H   -3.92892617   1.77644201   0.30625525 
H   -3.53655520   1.35709125  -1.34364700 
H   -2.48322829   2.45183258  -0.42879260 
C   -3.16081639  -0.90480614   0.17443928 
H   -2.04483831   0.59436660   1.21908260 
H   -4.06953981  -0.75661219   0.75630233 
H   -3.45539710  -1.17100819  -0.84153373 
H   -2.62862394  -1.74989611   0.60849626 
C   -0.88938002   0.39940158  -1.74529744 
C    0.43530514   0.22808107  -2.27444893 
H   -1.70313884   0.77804813  -2.35671049 
C    1.52461306   0.23629483  -1.41013798 
C    2.72179274  -0.05804553  -2.12367607 
S    0.86149950  -0.09865888  -3.88836494 
C    2.51230358  -0.25319375  -3.45539197 
H    1.58098349   1.21018499  -0.60278451 
H    3.70540858  -0.06705979  -1.67713611 
H    3.24791558  -0.45893219  -4.21814375 
H   -0.68055760  -3.23390030  -0.26788781 
H   -0.91377217  -2.41255947   2.31776909 
H    1.49780793  -1.52766280   3.10581947 
O    1.58515781   2.34394230   0.16883282 
O    0.55039317   0.98540887   1.59722161 
C    1.04940115   2.11389270   1.26391719 
C    0.99308601   3.19295973   2.30529901 
H    0.94665375   4.17507741   1.84190662 
H    1.90654747   3.15407419   2.90175386 
H    0.15160548   3.05550419   2.97966158 
H    3.23526231  -1.87497040   1.09622144 
H    1.86237349  -2.89527737  -1.01427977 
*
