! Opt PBEh-3c
%geom Constraints
{ B 0 20 2.6 C }
{ B 24 30 1.342857142857143 C }
    end
end
%output 
xyzfile=True 
end 
%scf 
maxiter 250 
end
%output
Print[P_Hirshfeld] = 1
end
% maxcore
4000
*xyz 1 1
Ir   0.56321364  -0.74206417   0.50977823 
C    0.00593504  -2.81675074   0.36934733 
C    0.08261438  -2.37993238   1.74272589 
C    2.17267536  -2.15857170   0.80502808 
C    1.27349764  -2.64982899  -0.21544328 
C    1.45140834  -2.03184081   2.00405815 
N   -1.03967328   0.15654190  -0.50453176 
C   -2.32126261   0.48525355   0.14146851 
C   -3.12864987   1.53499904  -0.60530948 
H   -3.96554175   1.84421878   0.01933899 
H   -3.55817940   1.16012035  -1.53569364 
H   -2.54058879   2.42708104  -0.82316887 
C   -3.12734492  -0.78864668   0.36299319 
H   -2.04363805   0.89469254   1.11442166 
H   -4.05102493  -0.54973248   0.88791905 
H   -3.39526727  -1.25788100  -0.58462586 
H   -2.59018328  -1.51460182   0.97178307 
C   -0.82539165   0.36012390  -1.74768849 
C    0.52562163   0.16093654  -2.22282748 
H   -1.60919547   0.70642334  -2.41579107 
C    1.63517351   0.54283022  -1.48018369 
C    2.83174823   0.15624329  -2.14752742 
S    0.93596538  -0.58755391  -3.70696219 
C    2.60755691  -0.45056321  -3.34471739 
H    1.54336483   1.41895534  -0.63903014 
H    3.82318158   0.37113804  -1.77575529 
H    3.33889413  -0.80914929  -4.05337175 
H   -0.88276586  -3.16948428  -0.13399534 
H   -0.71076619  -2.41864764   2.47484240 
H    1.83612872  -1.65376295   2.94031147 
O    1.34277744   2.41663926   0.25887198 
O    0.53923507   0.90826497   1.69383099 
C    0.93145696   2.09349364   1.37463774 
C    0.89050884   3.09416479   2.49357776 
H    0.84486836   4.10697944   2.10269773 
H    1.80538970   3.00539778   3.08286265 
H    0.05424266   2.91399730   3.16558266 
H    3.21784844  -1.92533235   0.66469568 
H    1.53553652  -2.85496065  -1.24340994 
*
