39
Coordinates from ORCA-job reaction4-IEIP_ts_guess_scan_2-1_orca E -1288.398608256288
  Ir      0.587579     -0.719496      0.440416
  C       0.037760     -2.801577      0.313739
  C       0.138557     -2.357849      1.684380
  C       2.208166     -2.129215      0.705582
  C       1.293166     -2.632576     -0.294628
  C       1.509867     -2.002057      1.918188
  N      -1.047309      0.187069     -0.520573
  C      -2.313283      0.532285      0.144123
  C      -3.138089      1.558927     -0.614307
  H      -3.967809      1.877170      0.015270
  H      -3.578143      1.158457     -1.529134
  H      -2.559649      2.449939     -0.860695
  C      -3.108962     -0.738210      0.416648
  H      -2.013174      0.966430      1.099356
  H      -4.018108     -0.488678      0.961515
  H      -3.402267     -1.229520     -0.512081
  H      -2.552839     -1.448567      1.026841
  C      -0.833025      0.387757     -1.759744
  C       0.523210      0.135737     -2.204255
  H      -1.597513      0.757714     -2.437066
  C       1.628473      0.543881     -1.468000
  C       2.832097      0.093949     -2.084127
  S       0.946479     -0.729039     -3.616397
  C       2.616656     -0.595616     -3.235259
  H       1.537821      1.400750     -0.698856
  H       3.818925      0.322347     -1.708505
  H       3.352235     -1.018828     -3.902599
  H      -0.858651     -3.162067     -0.170046
  H      -0.640006     -2.396624      2.432324
  H       1.909629     -1.615614      2.844727
  O       1.237562      2.486194      0.270166
  O       0.548020      0.889919      1.669639
  C       0.875035      2.110395      1.377548
  C       0.807125      3.058479      2.543274
  H       0.732012      4.085522      2.196377
  H       1.723574      2.970157      3.129974
  H      -0.023384      2.827830      3.207443
  H       3.249482     -1.891979      0.544893
  H       1.538149     -2.844206     -1.325412
39
Coordinates from ORCA-job reaction4-IEIP_ts_guess_scan_2-1_orca E -1288.397889609963
  Ir      0.590093     -0.710188      0.433926
  C       0.050223     -2.795883      0.301567
  C       0.142888     -2.356029      1.673827
  C       2.215653     -2.114312      0.704716
  C       1.307542     -2.619849     -0.300610
  C       1.511077     -1.993083      1.914258
  N      -1.055159      0.189226     -0.527794
  C      -2.318558      0.537510      0.139014
  C      -3.148968      1.553372     -0.627682
  H      -3.977478      1.876150      0.001178
  H      -3.590801      1.141524     -1.536616
  H      -2.573967      2.443273     -0.885890
  C      -3.108877     -0.732521      0.428479
  H      -2.015399      0.982674      1.088197
  H      -4.016276     -0.480035      0.974878
  H      -3.404902     -1.234466     -0.493668
  H      -2.547588     -1.434624      1.043535
  C      -0.848206      0.377659     -1.771330
  C       0.508144      0.127180     -2.216655
  H      -1.617078      0.737017     -2.449409
  C       1.609445      0.555063     -1.484848
  C       2.815922      0.096483     -2.090330
  S       0.936954     -0.765993     -3.608850
  C       2.605570     -0.621130     -3.224871
  H       1.515993      1.453863     -0.757463
  H       3.801280      0.342160     -1.721933
  H       3.344259     -1.053918     -3.882457
  H      -0.842173     -3.159649     -0.187139
  H      -0.638461     -2.401448      2.418415
  H       1.904806     -1.606992      2.843512
  O       1.368386      2.458612      0.326990
  O       0.528923      0.893243      1.674022
  C       0.917091      2.100391      1.407947
  C       0.808928      3.051860      2.567766
  H       0.796333      4.080660      2.218116
  H       1.680558      2.929108      3.213557
  H      -0.071860      2.853961      3.175201
  H       3.256714     -1.872675      0.549607
  H       1.558339     -2.829003     -1.330426
39
Coordinates from ORCA-job reaction4-IEIP_ts_guess_scan_2-1_orca E -1288.398701237158
  Ir      0.594606     -0.725498      0.441762
  C       0.034515     -2.807723      0.327951
  C       0.132981     -2.358701      1.696739
  C       2.206851     -2.143117      0.722783
  C       1.292858     -2.648231     -0.277347
  C       1.504554     -2.005892      1.932182
  N      -1.044684      0.184934     -0.522218
  C      -2.309146      0.529907      0.143397
  C      -3.132444      1.556995     -0.615960
  H      -3.962866      1.875766      0.012415
  H      -3.571181      1.156601     -1.531508
  H      -2.553226      2.447697     -0.861721
  C      -3.104704     -0.740678      0.415338
  H      -2.008166      0.963304      1.098703
  H      -4.013351     -0.491322      0.961091
  H      -3.398844     -1.231110     -0.513584
  H      -2.547998     -1.451524      1.024518
  C      -0.832929      0.394315     -1.763090
  C       0.522951      0.148642     -2.217144
  H      -1.599834      0.770915     -2.434001
  C       1.630100      0.536524     -1.470484
  C       2.831320      0.092681     -2.098197
  S       0.941770     -0.694772     -3.642894
  C       2.612614     -0.576734     -3.259706
  H       1.551065      1.412626     -0.710184
  H       3.819599      0.315718     -1.723309
  H       3.346055     -0.988344     -3.936422
  H      -0.861815     -3.167075     -0.156797
  H      -0.647520     -2.391717      2.442812
  H       1.903012     -1.616198      2.857899
  O       1.235681      2.482454      0.271319
  O       0.546182      0.889859      1.671944
  C       0.873799      2.108917      1.380528
  C       0.802313      3.060301      2.543158
  H       0.726361      4.086343      2.193407
  H       1.717613      2.974888      3.131993
  H      -0.029257      2.830058      3.205973
  H       3.250038     -1.913006      0.564914
  H       1.540501     -2.868614     -1.305516
39
Coordinates from ORCA-job reaction4-IEIP_ts_guess_scan_2-1_orca E -1288.398359406379
  Ir      0.582954     -0.721615      0.447700
  C       0.026288     -2.803781      0.346172
  C       0.120473     -2.345376      1.711815
  C       2.196407     -2.133540      0.741421
  C       1.285840     -2.646574     -0.257452
  C       1.490680     -1.989233      1.948170
  N      -1.048475      0.176025     -0.525652
  C      -2.316475      0.517405      0.136668
  C      -3.143807      1.541057     -0.623151
  H      -3.975980      1.856237      0.004746
  H      -3.580554      1.138871     -1.538808
  H      -2.568331      2.434299     -0.868424
  C      -3.108370     -0.755542      0.408703
  H      -2.019054      0.952603      1.092263
  H      -4.018865     -0.508785      0.952620
  H      -3.399137     -1.248009     -0.520195
  H      -2.550340     -1.463753      1.019562
  C      -0.836103      0.384001     -1.765640
  C       0.519142      0.146002     -2.224241
  H      -1.604471      0.759000     -2.435474
  C       1.627390      0.519774     -1.473169
  C       2.829593      0.104261     -2.117153
  S       0.937739     -0.654650     -3.673954
  C       2.610370     -0.527932     -3.299525
  H       1.540354      1.350258     -0.668799
  H       3.817656      0.315547     -1.734784
  H       3.343345     -0.916717     -3.990213
  H      -0.868435     -3.167247     -0.138476
  H      -0.662112     -2.373634      2.455881
  H       1.886142     -1.592346      2.872115
  O       1.360343      2.463321      0.298690
  O       0.533232      0.900629      1.662768
  C       0.919427      2.106148      1.384858
  C       0.826701      3.061843      2.542367
  H       0.811470      4.089424      2.189366
  H       1.705690      2.939930      3.178272
  H      -0.047210      2.867201      3.160734
  H       3.239696     -1.902730      0.584660
  H       1.536157     -2.873184     -1.283699
39
Coordinates from ORCA-job reaction4-IEIP_ts_guess_scan_2-1_orca E -1288.398733048204
  Ir      0.589431     -0.719865      0.442396
  C       0.034404     -2.801893      0.327423
  C       0.129054     -2.352918      1.696123
  C       2.204247     -2.132586      0.725735
  C       1.293469     -2.639494     -0.276108
  C       1.499069     -1.996987      1.933870
  N      -1.044253      0.184105     -0.522377
  C      -2.310876      0.525636      0.142574
  C      -3.137699      1.552472     -0.613513
  H      -3.968612      1.867186      0.016277
  H      -3.576182      1.153335     -1.529673
  H      -2.561331      2.445583     -0.857185
  C      -3.104581     -0.746660      0.412409
  H      -2.011486      0.958005      1.098861
  H      -4.014002     -0.499701      0.958027
  H      -3.397313     -1.236326     -0.517356
  H      -2.547045     -1.457309      1.020835
  C      -0.832491      0.392051     -1.762606
  C       0.521981      0.147849     -2.218756
  H      -1.600733      0.764689     -2.433898
  C       1.630176      0.533046     -1.472988
  C       2.830879      0.088843     -2.100172
  S       0.939728     -0.685615     -3.649882
  C       2.611012     -0.573090     -3.265965
  H       1.551544      1.398865     -0.702770
  H       3.819264      0.302604     -1.720060
  H       3.343470     -0.986329     -3.942808
  H      -0.860320     -3.162776     -0.159147
  H      -0.652966     -2.387088      2.440519
  H       1.894805     -1.606035      2.860218
  O       1.270276      2.478228      0.278664
  O       0.537657      0.893468      1.668246
  C       0.883602      2.108439      1.381102
  C       0.809797      3.059862      2.543481
  H       0.753837      4.087176      2.193837
  H       1.715339      2.960430      3.145095
  H      -0.034388      2.841145      3.194236
  H       3.247301     -1.900065      0.570056
  H       1.543308     -2.859088     -1.303979
39
Coordinates from ORCA-job reaction4-IEIP_ts_guess_scan_2-1_orca E -1288.398737615527
  Ir      0.592382     -0.724008      0.444574
  C       0.032564     -2.805509      0.333806
  C       0.127807     -2.354472      1.701787
  C       2.203958     -2.140695      0.731734
  C       1.292254     -2.647380     -0.269567
  C       1.498569     -2.000990      1.939229
  N      -1.043876      0.182818     -0.523091
  C      -2.310379      0.524840      0.141448
  C      -3.134725      1.553279     -0.615025
  H      -3.966007      1.868660      0.013927
  H      -3.572495      1.155428     -1.532109
  H      -2.556814      2.445766     -0.857331
  C      -3.105970     -0.746782      0.408999
  H      -2.011382      0.956054      1.098351
  H      -4.015723     -0.499141      0.953700
  H      -3.398199     -1.235138     -0.521619
  H      -2.550165     -1.458799      1.017410
  C      -0.833545      0.390651     -1.763998
  C       0.520620      0.148349     -2.221323
  H      -1.602948      0.762748     -2.434466
  C       1.627842      0.530688     -1.472506
  C       2.829409      0.095967     -2.104802
  S       0.939024     -0.686137     -3.651479
  C       2.610617     -0.561899     -3.273135
  H       1.548073      1.399457     -0.704342
  H       3.817481      0.315562     -1.727301
  H       3.343814     -0.965781     -3.954783
  H      -0.862788     -3.165263     -0.152488
  H      -0.654455     -2.385750      2.446052
  H       1.894954     -1.609271      2.864987
  O       1.269274      2.478529      0.278115
  O       0.542286      0.893622      1.670424
  C       0.887973      2.108293      1.382363
  C       0.811638      3.061586      2.543024
  H       0.751861      4.088119      2.191715
  H       1.717991      2.966213      3.144061
  H      -0.031258      2.841087      3.194859
  H       3.247740     -1.911442      0.576314
  H       1.541965     -2.870068     -1.296774
39
Coordinates from ORCA-job reaction4-IEIP_ts_guess_scan_2-1_orca E -1288.398746501032
  Ir      0.591277     -0.722197      0.444350
  C       0.033848     -2.803899      0.332212
  C       0.127990     -2.353522      1.700420
  C       2.204312     -2.136934      0.731257
  C       1.293604     -2.644052     -0.270676
  C       1.498215     -1.998641      1.938550
  N      -1.044085      0.182656     -0.523042
  C      -2.310855      0.523836      0.141643
  C      -3.135664      1.552779     -0.613706
  H      -3.966841      1.867402      0.015772
  H      -3.573671      1.155708     -1.531005
  H      -2.558026      2.445616     -0.855360
  C      -3.106215     -0.748164      0.408144
  H      -2.012022      0.954335      1.098922
  H      -4.016084     -0.501145      0.952941
  H      -3.398225     -1.235874     -0.522881
  H      -2.550337     -1.460546      1.016060
  C      -0.833931      0.390445     -1.763840
  C       0.520104      0.149067     -2.221766
  H      -1.603730      0.761912     -2.434164
  C       1.627529      0.531116     -1.473206
  C       2.828962      0.093057     -2.103194
  S       0.938828     -0.679933     -3.654842
  C       2.609987     -0.565430     -3.271209
  H       1.548227      1.397991     -0.703112
  H       3.817016      0.308306     -1.723139
  H       3.342958     -0.973326     -3.950719
  H      -0.860926     -3.164260     -0.154697
  H      -0.654606     -2.385851      2.444283
  H       1.893782     -1.606870      2.864636
  O       1.271087      2.478462      0.278277
  O       0.539865      0.894458      1.669629
  C       0.886094      2.108934      1.381536
  C       0.813214      3.061555      2.542993
  H       0.756538      4.088533      2.192510
  H       1.719454      2.962881      3.143697
  H      -0.030153      2.843151      3.194927
  H       3.247932     -1.906464      0.576464
  H       1.543918     -2.865903     -1.297925
39
Coordinates from ORCA-job reaction4-IEIP_ts_guess_scan_2-1_orca E -1288.398747923429
  Ir      0.590485     -0.721380      0.445109
  C       0.034402     -2.802959      0.331037
  C       0.127284     -2.353594      1.699595
  C       2.204174     -2.135052      0.731964
  C       1.294477     -2.641922     -0.270973
  C       1.497089     -1.998047      1.938873
  N      -1.043310      0.182332     -0.522255
  C      -2.310173      0.523462      0.142535
  C      -3.134569      1.553809     -0.611449
  H      -3.965326      1.868290      0.018670
  H      -3.573241      1.158144     -1.529025
  H      -2.556396      2.446514     -0.852291
  C      -3.106276     -0.748384      0.407568
  H      -2.011263      0.952761      1.100326
  H      -4.016134     -0.501459      0.952440
  H      -3.398326     -1.234982     -0.524021
  H      -2.550908     -1.461724      1.014844
  C      -0.833480      0.389011     -1.763193
  C       0.520182      0.147501     -2.221653
  H      -1.603788      0.759097     -2.433653
  C       1.627872      0.529470     -1.473442
  C       2.829196      0.091487     -2.103403
  S       0.938660     -0.681662     -3.654540
  C       2.610019     -0.565173     -3.272498
  H       1.548836      1.396099     -0.703023
  H       3.817281      0.306199     -1.723126
  H       3.342798     -0.972219     -3.952732
  H      -0.859833     -3.163336     -0.156851
  H      -0.655895     -2.386690      2.442807
  H       1.891786     -1.606613      2.865473
  O       1.270926      2.476932      0.277749
  O       0.538425      0.894173      1.669842
  C       0.885757      2.108125      1.381235
  C       0.812357      3.061801      2.541810
  H       0.755948      4.088482      2.190436
  H       1.718302      2.963508      3.143026
  H      -0.031336      2.844031      3.193553
  H       3.247812     -1.903936      0.578198
  H       1.545558     -2.862907     -1.298223
