39
Coordinates from ORCA-job reaction4-IEIP_ts_guess_scan_7-6_orca E -1288.400049373554
  Ir      0.609735     -0.713001      0.435778
  C       0.080476     -2.809445      0.335276
  C       0.075436     -2.351397      1.700549
  C       2.212756     -2.104567      0.866502
  C       1.377888     -2.640409     -0.183951
  C       1.414543     -1.960565      2.019135
  N      -1.051474      0.149955     -0.520030
  C      -2.319647      0.436594      0.169428
  C      -3.108715      1.575401     -0.457995
  H      -3.932689      1.840090      0.203256
  H      -3.554848      1.305171     -1.416163
  H      -2.498650      2.468951     -0.592156
  C      -3.147743     -0.839949      0.260652
  H      -2.027155      0.734615      1.177270
  H      -4.054792     -0.649161      0.832363
  H      -3.444692     -1.190572     -0.728625
  H      -2.608324     -1.641296      0.763415
  C      -0.879127      0.382573     -1.764078
  C       0.461705      0.178533     -2.249430
  H      -1.675373      0.748040     -2.405826
  C       1.540868      0.340390     -1.384484
  C       2.754482     -0.024222     -2.037736
  S       0.916000     -0.375262     -3.791587
  C       2.567474     -0.423336     -3.324898
  H       1.512351      1.275040     -0.615225
  H       3.731367      0.060755     -1.584226
  H       3.316451     -0.722226     -4.042690
  H      -0.771140     -3.193169     -0.207938
  H      -0.755149     -2.388049      2.389631
  H       1.738493     -1.547446      2.963802
  O       1.399289      2.433249      0.188499
  O       0.545302      0.952161      1.617652
  C       0.958848      2.127257      1.299118
  C       0.906764      3.142345      2.405305
  H       0.866444      4.150785      2.002602
  H       1.815733      3.059301      3.004356
  H       0.063012      2.970264      3.069882
  H       3.265913     -1.879709      0.791198
  H       1.697557     -2.878499     -1.187889
39
Coordinates from ORCA-job reaction4-IEIP_ts_guess_scan_7-6_orca E -1288.397179748801
  Ir      0.614610     -0.689758      0.424735
  C       0.114433     -2.793011      0.285292
  C       0.093261     -2.360976      1.658523
  C       2.232685     -2.068349      0.844785
  C       1.413120     -2.597167     -0.221085
  C       1.423780     -1.955734      1.993648
  N      -1.059265      0.164024     -0.524794
  C      -2.322314      0.459659      0.169049
  C      -3.119631      1.583163     -0.475174
  H      -3.940249      1.857792      0.186181
  H      -3.570804      1.292554     -1.425000
  H      -2.513780      2.476105     -0.630850
  C      -3.144832     -0.817816      0.291446
  H      -2.022892      0.778191      1.168559
  H      -4.048029     -0.619259      0.866578
  H      -3.448234     -1.188536     -0.688492
  H      -2.598348     -1.607306      0.805292
  C      -0.897129      0.367809     -1.775994
  C       0.442503      0.150545     -2.257379
  H      -1.698316      0.710017     -2.424331
  C       1.518675      0.375923     -1.402008
  C       2.732796     -0.033843     -2.028521
  S       0.899032     -0.500678     -3.759749
  C       2.548238     -0.523672     -3.284153
  H       1.495301      1.396299     -0.734217
  H       3.709682      0.088670     -1.583772
  H       3.298887     -0.869764     -3.978497
  H      -0.727677     -3.178940     -0.271025
  H      -0.741500     -2.422336      2.340657
  H       1.734908     -1.555166      2.947959
  O       1.498152      2.393449      0.268723
  O       0.512631      0.949294      1.638291
  C       0.977435      2.110696      1.351312
  C       0.891982      3.129149      2.452104
  H       0.910413      4.137671      2.047924
  H       1.759212      3.016676      3.105726
  H       0.003772      2.986653      3.063492
  H       3.283351     -1.828739      0.781823
  H       1.743511     -2.814099     -1.226317
39
Coordinates from ORCA-job reaction4-IEIP_ts_guess_scan_7-6_orca E -1288.400206901308
  Ir      0.610661     -0.709768      0.440384
  C       0.090671     -2.810356      0.330994
  C       0.077012     -2.360380      1.698541
  C       2.217007     -2.097109      0.874930
  C       1.389969     -2.632837     -0.181649
  C       1.411834     -1.962432      2.024458
  N      -1.051741      0.150558     -0.518442
  C      -2.318491      0.441080      0.170302
  C      -3.106291      1.577155     -0.463514
  H      -3.931070      1.845311      0.195312
  H      -3.550974      1.302397     -1.421108
  H      -2.495784      2.469885     -0.601210
  C      -3.146757     -0.834824      0.267419
  H      -2.025222      0.743460      1.176608
  H      -4.053389     -0.641321      0.838835
  H      -3.444326     -1.189588     -0.720189
  H      -2.607044     -1.634048      0.773334
  C      -0.880558      0.383674     -1.764393
  C       0.460033      0.181853     -2.255723
  H      -1.677729      0.752727     -2.402884
  C       1.541647      0.328005     -1.388904
  C       2.751124     -0.039119     -2.050696
  S       0.906917     -0.368566     -3.800832
  C       2.559127     -0.428790     -3.339278
  H       1.531740      1.281491     -0.628261
  H       3.730039      0.038919     -1.600384
  H       3.304545     -0.726527     -4.061148
  H      -0.756395     -3.196058     -0.217922
  H      -0.756315     -2.405319      2.383662
  H       1.729109     -1.552134      2.972584
  O       1.401200      2.419709      0.200969
  O       0.529951      0.952066      1.628874
  C       0.953419      2.122637      1.311991
  C       0.899317      3.143622      2.412298
  H       0.867286      4.150287      2.004375
  H       1.803552      3.058634      3.018152
  H       0.049979      2.979207      3.071531
  H       3.269638     -1.867950      0.806410
  H       1.715676     -2.866361     -1.184687
39
Coordinates from ORCA-job reaction4-IEIP_ts_guess_scan_7-6_orca E -1288.398729763958
  Ir      0.597540     -0.716499      0.440470
  C       0.058346     -2.814484      0.382311
  C       0.052812     -2.333356      1.738893
  C       2.192329     -2.107559      0.903439
  C       1.357409     -2.660797     -0.137625
  C       1.391679     -1.939197      2.051545
  N      -1.066208      0.131781     -0.532572
  C      -2.338033      0.410197      0.152886
  C      -3.135876      1.539773     -0.480155
  H      -3.964319      1.798701      0.177807
  H      -3.576549      1.262542     -1.438850
  H      -2.533915      2.438698     -0.615172
  C      -3.154621     -0.873524      0.246760
  H      -2.050204      0.713768      1.160357
  H      -4.064024     -0.689398      0.816934
  H      -3.447124     -1.229598     -0.741877
  H      -2.608163     -1.668328      0.752387
  C      -0.896336      0.369567     -1.777817
  C       0.446448      0.193810     -2.269543
  H      -1.696283      0.736922     -2.413600
  C       1.519991      0.322999     -1.392159
  C       2.741102      0.018888     -2.064003
  S       0.910253     -0.279402     -3.834725
  C       2.562842     -0.315494     -3.370380
  H       1.477437      1.235515     -0.585892
  H       3.716062      0.099014     -1.605416
  H       3.317703     -0.560870     -4.102077
  H      -0.793748     -3.205157     -0.155201
  H      -0.778826     -2.355220      2.427178
  H       1.715325     -1.509803      2.989017
  O       1.637815      2.366101      0.248528
  O       0.533073      0.974605      1.595720
  C       1.059498      2.111353      1.309517
  C       0.974023      3.145383      2.395189
  H       1.051251      4.147379      1.981878
  H       1.809017      3.004255      3.084249
  H       0.056891      3.047322      2.971640
  H       3.246821     -1.889764      0.826854
  H       1.677931     -2.920937     -1.135755
39
Coordinates from ORCA-job reaction4-IEIP_ts_guess_scan_7-6_orca E -1288.400278896972
  Ir      0.606015     -0.709850      0.441475
  C       0.074293     -2.809043      0.356787
  C       0.063384     -2.345134      1.719275
  C       2.204296     -2.100956      0.892024
  C       1.374309     -2.644070     -0.158193
  C       1.399777     -1.949510      2.040052
  N      -1.054312      0.147427     -0.522454
  C      -2.326648      0.422638      0.163245
  C      -3.122159      1.557691     -0.462885
  H      -3.951271      1.812919      0.195670
  H      -3.561747      1.287844     -1.424190
  H      -2.518981      2.456862     -0.590614
  C      -3.145357     -0.860468      0.246937
  H      -2.039747      0.718676      1.173262
  H      -4.055315     -0.679009      0.817094
  H      -3.436961     -1.209146     -0.744596
  H      -2.600848     -1.659607      0.747749
  C      -0.880529      0.394908     -1.765598
  C       0.458893      0.200943     -2.260946
  H      -1.678706      0.766723     -2.400975
  C       1.539926      0.320858     -1.390314
  C       2.748454     -0.034626     -2.059612
  S       0.905544     -0.303126     -3.821485
  C       2.556275     -0.388406     -3.358570
  H       1.538304      1.265756     -0.615888
  H       3.727098      0.026477     -1.606002
  H       3.301193     -0.670190     -4.087260
  H      -0.774961     -3.196090     -0.187761
  H      -0.769929     -2.378596      2.405023
  H       1.719387     -1.530447      2.983561
  O       1.475141      2.412198      0.209875
  O       0.530674      0.966019      1.615721
  C       0.989008      2.125699      1.308102
  C       0.932200      3.149038      2.405677
  H       0.934957      4.155689      1.996515
  H       1.818430      3.042766      3.034323
  H       0.062585      3.005847      3.043035
  H       3.258249     -1.878698      0.821217
  H       1.698446     -2.890815     -1.158537
39
Coordinates from ORCA-job reaction4-IEIP_ts_guess_scan_7-6_orca E -1288.400313338317
  Ir      0.610669     -0.715670      0.443919
  C       0.072735     -2.813360      0.359974
  C       0.058916     -2.349276      1.722117
  C       2.203082     -2.111536      0.901017
  C       1.374792     -2.652518     -0.151440
  C       1.395209     -1.956807      2.046355
  N      -1.049071      0.146041     -0.522934
  C      -2.319860      0.425242      0.164366
  C      -3.113786      1.561682     -0.461209
  H      -3.941057      1.819234      0.198722
  H      -3.555870      1.292195     -1.421470
  H      -2.508878      2.459429     -0.590627
  C      -3.142632     -0.855168      0.250884
  H      -2.030701      0.721814      1.173685
  H      -4.051547     -0.669851      0.821503
  H      -3.436257     -1.204530     -0.739809
  H      -2.600535     -1.655211      0.752585
  C      -0.877690      0.391723     -1.766910
  C       0.460157      0.197572     -2.263905
  H      -1.676731      0.764175     -2.400887
  C       1.539467      0.313364     -1.391408
  C       2.749804     -0.030371     -2.063596
  S       0.907113     -0.302840     -3.825281
  C       2.559674     -0.371133     -3.366550
  H       1.537050      1.266236     -0.622880
  H       3.728280      0.034054     -1.610096
  H       3.306260     -0.639911     -4.098411
  H      -0.775886     -3.198151     -0.187092
  H      -0.776618     -2.379942      2.405290
  H       1.713153     -1.538029      2.990551
  O       1.441152      2.415299      0.196061
  O       0.535535      0.959363      1.617734
  C       0.975106      2.123611      1.302122
  C       0.925895      3.147206      2.399791
  H       0.910406      4.153588      1.990247
  H       1.823895      3.051082      3.013166
  H       0.068958      2.994686      3.051999
  H       3.258028     -1.893011      0.833727
  H       1.701158     -2.901092     -1.150567
39
Coordinates from ORCA-job reaction4-IEIP_ts_guess_scan_7-6_orca E -1288.400337903419
  Ir      0.611956     -0.718023      0.445487
  C       0.071938     -2.814880      0.363334
  C       0.055709     -2.350059      1.724963
  C       2.201846     -2.114969      0.907640
  C       1.375254     -2.655887     -0.145936
  C       1.391434     -1.958182      2.051117
  N      -1.046337      0.143659     -0.522666
  C      -2.316620      0.422854      0.165806
  C      -3.109825      1.561489     -0.456706
  H      -3.936253      1.818355      0.204531
  H      -3.553067      1.294602     -1.417157
  H      -2.504197      2.458965     -0.584624
  C      -3.141660     -0.856289      0.250329
  H      -2.026778      0.717317      1.175587
  H      -4.050438     -0.670129      0.820900
  H      -3.435638     -1.203742     -0.740930
  H      -2.601393     -1.658036      0.751109
  C      -0.876135      0.392381     -1.766260
  C       0.460697      0.201234     -2.266332
  H      -1.676114      0.767304     -2.397606
  C       1.539957      0.306349     -1.392848
  C       2.750244     -0.032813     -2.067314
  S       0.908904     -0.271272     -3.835711
  C       2.559543     -0.361594     -3.373447
  H       1.539846      1.260792     -0.623016
  H       3.728295      0.020672     -1.611503
  H       3.305452     -0.628728     -4.106591
  H      -0.775895     -3.199170     -0.185286
  H      -0.781315     -2.379002      2.406368
  H       1.707880     -1.538650      2.995490
  O       1.439010      2.412501      0.191601
  O       0.537594      0.957726      1.617391
  C       0.974509      2.121661      1.299023
  C       0.921842      3.149063      2.392986
  H       0.902347      4.154010      1.980129
  H       1.820488      3.058278      3.006220
  H       0.065747      2.995451      3.046069
  H       3.257274     -1.898080      0.842718
  H       1.703270     -2.905966     -1.144123
39
Coordinates from ORCA-job reaction4-IEIP_ts_guess_scan_7-6_orca E -1288.400360237290
  Ir      0.609635     -0.717848      0.448266
  C       0.071033     -2.814544      0.366183
  C       0.051807     -2.349578      1.727644
  C       2.199593     -2.113465      0.914210
  C       1.375427     -2.655120     -0.140768
  C       1.386498     -1.956668      2.056002
  N      -1.046029      0.141494     -0.521179
  C      -2.317102      0.418425      0.166874
  C      -3.109829      1.559124     -0.452661
  H      -3.936682      1.813830      0.208890
  H      -3.552454      1.295330     -1.414236
  H      -2.504146      2.457041     -0.577335
  C      -3.142700     -0.860660      0.246552
  H      -2.028501      0.709888      1.177829
  H      -4.052398     -0.675652      0.816015
  H      -3.435103     -1.205289     -0.746156
  H      -2.603756     -1.664110      0.746077
  C      -0.875518      0.393413     -1.764199
  C       0.460331      0.202948     -2.267355
  H      -1.676507      0.768528     -2.394118
  C       1.540951      0.296587     -1.393899
  C       2.750488     -0.037271     -2.072035
  S       0.907404     -0.252756     -3.841892
  C       2.558494     -0.348416     -3.382420
  H       1.543406      1.250027     -0.620298
  H       3.728706      0.007746     -1.615770
  H       3.303543     -0.607910     -4.119179
  H      -0.775461     -3.199336     -0.184197
  H      -0.786620     -2.378352      2.407299
  H       1.700887     -1.536456      3.000777
  O       1.458852      2.402588      0.194966
  O       0.536202      0.959868      1.618360
  C       0.981981      2.119743      1.299461
  C       0.924321      3.153291      2.387465
  H       0.913245      4.156138      1.969299
  H       1.817075      3.061465      3.009108
  H       0.061736      3.007052      3.033671
  H       3.255130     -1.896391      0.851702
  H       1.705430     -2.905513     -1.138216
39
Coordinates from ORCA-job reaction4-IEIP_ts_guess_scan_7-6_orca E -1288.400360542748
  Ir      0.610066     -0.719213      0.449574
  C       0.069808     -2.815443      0.368921
  C       0.048827     -2.349308      1.730003
  C       2.198337     -2.115895      0.919860
  C       1.375297     -2.657816     -0.135935
  C       1.383353     -1.957195      2.060051
  N      -1.045588      0.140782     -0.521413
  C      -2.317322      0.415152      0.166717
  C      -3.110122      1.557878     -0.449272
  H      -3.937262      1.810053      0.212901
  H      -3.552360      1.297291     -1.411881
  H      -2.504655      2.456384     -0.570700
  C      -3.142735     -0.864330      0.241235
  H      -2.029726      0.703277      1.178875
  H      -4.053136     -0.681319      0.810223
  H      -3.433931     -1.205693     -0.752958
  H      -2.604299     -1.669470      0.738652
  C      -0.875819      0.394791     -1.764298
  C       0.459093      0.206095     -2.268919
  H      -1.677975      0.769040     -2.393202
  C       1.539248      0.293839     -1.394429
  C       2.748975     -0.037486     -2.072716
  S       0.907033     -0.241967     -3.845453
  C       2.557506     -0.340820     -3.385200
  H       1.542325      1.248328     -0.620569
  H       3.726850      0.003849     -1.615446
  H       3.302987     -0.596248     -4.122933
  H      -0.776033     -3.200007     -0.182656
  H      -0.790740     -2.376567      2.408303
  H       1.696669     -1.536303      3.004893
  O       1.462808      2.402730      0.192596
  O       0.539607      0.961930      1.618185
  C       0.985028      2.121305      1.297235
  C       0.928998      3.156388      2.383834
  H       0.917355      4.158635      1.964288
  H       1.822677      3.065376      3.004254
  H       0.067362      3.010994      3.031480
  H       3.254263     -1.900221      0.859231
  H       1.706603     -2.909627     -1.132591
39
Coordinates from ORCA-job reaction4-IEIP_ts_guess_scan_7-6_orca E -1288.400363240681
  Ir      0.610559     -0.719897      0.450066
  C       0.071290     -2.816160      0.367582
  C       0.047696     -2.350642      1.728896
  C       2.198683     -2.116157      0.922879
  C       1.377697     -2.657846     -0.134649
  C       1.381500     -1.958214      2.061564
  N      -1.044797      0.140232     -0.520960
  C      -2.316045      0.415360      0.167844
  C      -3.107666      1.559821     -0.446578
  H      -3.934096      1.812399      0.216318
  H      -3.550739      1.300810     -1.409218
  H      -2.501033      2.457600     -0.567456
  C      -3.142900     -0.863265      0.240959
  H      -2.027910      0.702040      1.180275
  H      -4.053071     -0.679917      0.810227
  H      -3.434563     -1.203110     -0.753621
  H      -2.605354     -1.669668      0.737284
  C      -0.875933      0.393350     -1.764180
  C       0.458470      0.204747     -2.269362
  H      -1.678698      0.766962     -2.392696
  C       1.538781      0.292088     -1.395006
  C       2.748598     -0.037131     -2.073790
  S       0.906390     -0.242854     -3.846164
  C       2.556863     -0.340092     -3.386432
  H       1.541110      1.247476     -0.621655
  H       3.726643      0.005111     -1.616994
  H       3.302439     -0.593828     -4.124668
  H      -0.773277     -3.200881     -0.185812
  H      -0.793097     -2.378465      2.405661
  H       1.692973     -1.537564      3.007123
  O       1.460471      2.402353      0.190724
  O       0.540221      0.960958      1.617949
  C       0.984524      2.120486      1.296105
  C       0.927143      3.156438      2.381805
  H       0.912499      4.158256      1.961311
  H       1.821815      3.068245      3.001182
  H       0.066661      3.009459      3.030612
  H       3.254679     -1.900273      0.864468
  H       1.710844     -2.909039     -1.130850
