39
Generated by autodE on: 2023-08-14. E = -1288.399580 Ha
Ir    0.60298  -0.72839   0.47141
C     0.06469  -2.82129   0.37908
C     0.02159  -2.35436   1.74002
C     2.18516  -2.12427   0.96665
C     1.37873  -2.66373  -0.10304
C     1.35161  -1.96545   2.09291
N    -1.04283   0.13136  -0.51388
C    -2.31961   0.39868   0.16906
C    -3.10685   1.55069  -0.43749
H    -3.93668   1.79712   0.22347
H    -3.54487   1.30258  -1.40525
H    -2.49863   2.44897  -0.54587
C    -3.14827  -0.87975   0.22099
H    -2.03999   0.67441   1.18694
H    -4.06259  -0.70307   0.78577
H    -3.43289  -1.20694  -0.77988
H    -2.61517  -1.69315   0.71062
C    -0.87232   0.38924  -1.75645
C     0.45968   0.21440  -2.27063
H    -1.67946   0.75854  -2.38221
C     1.54880   0.29774  -1.41046
C     2.75171  -0.01577  -2.10510
S     0.89351  -0.19969  -3.86339
C     2.54754  -0.29540  -3.42216
H     1.55758   1.25455  -0.60049
H     3.73456   0.02130  -1.65829
H     3.28742  -0.53216  -4.17171
H    -0.77173  -3.20560  -0.18679
H    -0.82861  -2.38256   2.40498
H     1.64962  -1.54564   3.04321
O     1.50438   2.37351   0.19065
O     0.54185   0.96568   1.62338
C     1.00771   2.11204   1.29513
C     0.95475   3.16606   2.36230
H     0.93760   4.16063   1.92486
H     1.85328   3.08958   2.97765
H     0.09759   3.02908   3.01737
H     3.24185  -1.90837   0.92282
H     1.72568  -2.91138  -1.09547
