! Opt PBEh-3c
%geom Constraints
{ B 0 20 2.4714285714285715 C }
{ B 24 30 1.3714285714285714 C }
    end
end
%output 
xyzfile=True 
end 
%scf 
maxiter 250 
end
%output
Print[P_Hirshfeld] = 1
end
% maxcore
4000
*xyz 1 1
Ir   0.57842626  -0.73098331   0.48703073 
C    0.02176209  -2.80973714   0.36587044 
C    0.09064004  -2.36453229   1.73602851 
C    2.18575297  -2.14577115   0.80516435 
C    1.29240921  -2.64781316  -0.21483551 
C    1.45619014  -2.00903147   1.99906138 
N   -1.04209405   0.15648916  -0.51253273 
C   -2.31979478   0.47662705   0.14477894 
C   -3.12505103   1.54522951  -0.57730780 
H   -3.95746620   1.84666824   0.05710978 
H   -3.56108205   1.19157859  -1.51297340 
H   -2.53256640   2.43793372  -0.77996989 
C   -3.12947052  -0.79913142   0.34182287 
H   -2.03716089   0.86410449   1.12509185 
H   -4.04964876  -0.56869644   0.87664625 
H   -3.40358533  -1.24630701  -0.61462025 
H   -2.59121625  -1.54016429   0.93105786 
C   -0.83977482   0.36606910  -1.75684892 
C    0.50852817   0.16574930  -2.23546408 
H   -1.62752989   0.71576877  -2.41818055 
C    1.61173121   0.48766212  -1.45431335 
C    2.81392581   0.10284375  -2.11262519 
S    0.93244146  -0.53544071  -3.73430518 
C    2.59961427  -0.45134982  -3.33666203 
H    1.53635824   1.37641483  -0.63581512 
H    3.80179353   0.28271749  -1.71391684 
H    3.33575448  -0.79713191  -4.04664838 
H   -0.86364588  -3.16770203  -0.13962729 
H   -0.70597092  -2.39899156   2.46463727 
H    1.83548572  -1.62123489   2.93357986 
O    1.35318600   2.42531262   0.25101375 
O    0.53534966   0.91846475   1.67781341 
C    0.93284797   2.10305974   1.36334147 
C    0.88567253   3.10287695   2.48319062 
H    0.84589224   4.11628633   2.09322114 
H    1.79550235   3.01072058   3.07968738 
H    0.04355552   2.92422898   3.14826958 
H    3.23275744  -1.91753375   0.67149183 
H    1.55985051  -2.86606372  -1.23852261 
*
