39
Generated by autodE on: 2023-08-14. E = -1288.395613 Ha
Ir    0.58583  -0.73742   0.50485
C     0.04482  -2.82241   0.38497
C     0.02492  -2.36207   1.75056
C     2.17633  -2.14006   0.94971
C     1.35020  -2.66160  -0.11535
C     1.36666  -1.99105   2.09140
N    -1.03704   0.13150  -0.50396
C    -2.31994   0.41461   0.16266
C    -3.10090   1.55204  -0.47792
H    -3.93418   1.81738   0.17133
H    -3.53379   1.28044  -1.44171
H    -2.48987   2.44584  -0.60568
C    -3.14950  -0.86173   0.24005
H    -2.04838   0.71513   1.17581
H    -4.06963  -0.66967   0.79014
H    -3.42386  -1.21593  -0.75450
H    -2.62245  -1.66164   0.75789
C    -0.85475   0.36528  -1.74914
C     0.48060   0.19511  -2.26130
H    -1.66129   0.71487  -2.38756
C     1.58937   0.39423  -1.44969
C     2.78227   0.06261  -2.14947
S     0.88866  -0.32626  -3.83488
C     2.55484  -0.33087  -3.43367
H     1.56025   1.31337  -0.59945
H     3.77448   0.16740  -1.73517
H     3.28393  -0.60391  -4.18157
H    -0.80283  -3.19636  -0.17103
H    -0.81526  -2.39350   2.42841
H     1.68220  -1.58576   3.04226
O     1.46498   2.37726   0.21438
O     0.54095   0.94941   1.65559
C     0.98983   2.10380   1.32398
C     0.94441   3.14818   2.40084
H     0.90185   4.14539   1.97109
H     1.85850   3.08248   2.99430
H     0.10526   2.99347   3.07497
H     3.23084  -1.91788   0.88506
H     1.68105  -2.89246  -1.11743
