39
Coordinates from ORCA-job reaction4-IEIP_ts_guess_scan_11-7_orca E -1288.400836757497
  Ir      0.619779     -0.717463      0.420680
  C       0.135909     -2.831037      0.323140
  C      -0.038391     -2.373690      1.676979
  C       2.179629     -2.070746      1.089618
  C       1.488548     -2.647913     -0.033651
  C       1.232357     -1.933007      2.136789
  N      -1.062590      0.132305     -0.514271
  C      -2.333424      0.347654      0.194582
  C      -3.130866      1.536130     -0.323338
  H      -3.958994      1.727420      0.357366
  H      -3.570920      1.356095     -1.305137
  H      -2.528545      2.443713     -0.368621
  C      -3.156806     -0.935152      0.154725
  H      -2.049321      0.552112      1.227840
  H      -4.062428     -0.812762      0.747418
  H      -3.456430     -1.178285     -0.865527
  H      -2.611595     -1.785216      0.561590
  C      -0.911179      0.457012     -1.739454
  C       0.408472      0.272217     -2.254748
  H      -1.716885      0.873438     -2.335856
  C       1.457336      0.123563     -1.346235
  C       2.666012     -0.159813     -2.054593
  S       0.878873      0.090426     -3.874154
  C       2.500236     -0.202258     -3.404805
  H       1.599682      1.128864     -0.587671
  H       3.630992     -0.265853     -1.580438
  H       3.253823     -0.367828     -4.159726
  H      -0.631036     -3.251596     -0.310870
  H      -0.942929     -2.421661      2.264049
  H       1.429588     -1.495205      3.105212
  O       1.697593      2.315870      0.148149
  O       0.553188      1.011320      1.539937
  C       1.104259      2.117208      1.220202
  C       1.036105      3.218033      2.238677
  H       0.916173      4.182309      1.750176
  H       1.978940      3.250060      2.787353
  H       0.233432      3.057998      2.953234
  H       3.233393     -1.846748      1.150549
  H       1.927387     -2.898325     -0.988430
39
Coordinates from ORCA-job reaction4-IEIP_ts_guess_scan_11-7_orca E -1288.400850273931
  Ir      0.617816     -0.710141      0.416108
  C       0.140114     -2.827491      0.322129
  C      -0.034884     -2.371615      1.676308
  C       2.181039     -2.060098      1.088093
  C       1.492087     -2.640524     -0.034743
  C       1.233295     -1.925515      2.134929
  N      -1.069528      0.132225     -0.516290
  C      -2.339765      0.347516      0.193827
  C      -3.139929      1.532493     -0.327866
  H      -3.967938      1.724647      0.352716
  H      -3.580248      1.347935     -1.308716
  H      -2.539474      2.441133     -0.377000
  C      -3.160733     -0.936960      0.159680
  H      -2.055035      0.556327      1.226057
  H      -4.065919     -0.814189      0.752955
  H      -3.461083     -1.184500     -0.859307
  H      -2.613353     -1.784407      0.569078
  C      -0.917443      0.453109     -1.747232
  C       0.405096      0.269243     -2.265303
  H      -1.724454      0.865331     -2.344710
  C       1.453109      0.124447     -1.354928
  C       2.662662     -0.161924     -2.061116
  S       0.877784      0.083995     -3.883717
  C       2.498329     -0.209859     -3.411260
  H       1.602055      1.152567     -0.614920
  H       3.627361     -0.265394     -1.585640
  H       3.252804     -0.379018     -4.164398
  H      -0.625452     -3.251184     -0.311496
  H      -0.938778     -2.423223      2.263954
  H       1.429101     -1.486944      3.103293
  O       1.761604      2.285696      0.191654
  O       0.538215      1.017651      1.541563
  C       1.122377      2.110465      1.241429
  C       1.040677      3.218082      2.251092
  H       0.961364      4.182140      1.753870
  H       1.962473      3.231765      2.835153
  H       0.207948      3.080015      2.935059
  H       3.234231     -1.833518      1.149515
  H       1.931843     -2.891088     -0.989078
39
Coordinates from ORCA-job reaction4-IEIP_ts_guess_scan_11-7_orca E -1288.399875089493
  Ir      0.626958     -0.716122      0.416223
  C       0.141480     -2.836178      0.317494
  C      -0.029817     -2.390507      1.675399
  C       2.184208     -2.078306      1.085059
  C       1.493521     -2.651595     -0.040021
  C       1.237261     -1.948064      2.132956
  N      -1.059449      0.137561     -0.504611
  C      -2.327993      0.355802      0.207241
  C      -3.119047      1.549890     -0.307426
  H      -3.946965      1.742970      0.372963
  H      -3.558557      1.375172     -1.290456
  H      -2.512320      2.454759     -0.349203
  C      -3.157606     -0.922713      0.163269
  H      -2.042774      0.555166      1.241208
  H      -4.062323     -0.798236      0.756891
  H      -3.459032     -1.160919     -0.857633
  H      -2.616046     -1.776636      0.566891
  C      -0.898493      0.470426     -1.741719
  C       0.428682      0.280906     -2.267975
  H      -1.702597      0.892550     -2.335979
  C       1.471943      0.105751     -1.356159
  C       2.677748     -0.199367     -2.062414
  S       0.903322      0.105731     -3.887006
  C       2.516315     -0.229535     -3.413175
  H       1.665795      1.161275     -0.635418
  H       3.639320     -0.325591     -1.585713
  H       3.269549     -0.406952     -4.165478
  H      -0.625740     -3.255075     -0.317386
  H      -0.932439     -2.444750      2.264502
  H       1.435045     -1.515876      3.103773
  O       1.565695      2.336629      0.118586
  O       0.539697      1.008653      1.563207
  C       1.044553      2.127926      1.227165
  C       1.000322      3.228599      2.245484
  H       0.825486      4.187697      1.763204
  H       1.970429      3.289335      2.741707
  H       0.242826      3.046385      3.002420
  H       3.238408     -1.856924      1.148249
  H       1.932005     -2.900647     -0.995377
39
Coordinates from ORCA-job reaction4-IEIP_ts_guess_scan_11-7_orca E -1288.401161847083
  Ir      0.618584     -0.718177      0.418846
  C       0.130909     -2.834982      0.331864
  C      -0.038208     -2.379372      1.686674
  C       2.176447     -2.074952      1.091277
  C       1.482791     -2.653915     -0.029205
  C       1.231490     -1.936325      2.140344
  N      -1.065994      0.130140     -0.511320
  C      -2.336483      0.345378      0.196870
  C      -3.132067      1.534543     -0.322248
  H      -3.961851      1.725976      0.356395
  H      -3.569408      1.355119     -1.305379
  H      -2.529136      2.441822     -0.365664
  C      -3.160207     -0.937084      0.155338
  H      -2.053340      0.548920      1.230511
  H      -4.066310     -0.814860      0.747325
  H      -3.458989     -1.179529     -0.865313
  H      -2.615353     -1.787390      0.562222
  C      -0.910659      0.458044     -1.742538
  C       0.413342      0.276726     -2.263545
  H      -1.716769      0.875918     -2.337107
  C       1.457892      0.112527     -1.352117
  C       2.669966     -0.166471     -2.057950
  S       0.890435      0.109953     -3.882395
  C       2.510422     -0.189990     -3.409341
  H       1.614205      1.145485     -0.607367
  H       3.632875     -0.278473     -1.580691
  H       3.267530     -0.346850     -4.162524
  H      -0.638017     -3.256351     -0.299231
  H      -0.940501     -2.427576      2.276972
  H       1.431392     -1.497634      3.107804
  O       1.680317      2.328368      0.138566
  O       0.553703      1.014637      1.539643
  C       1.098580      2.122373      1.217770
  C       1.038951      3.220343      2.238447
  H       0.909801      4.185294      1.753595
  H       1.988045      3.254229      2.776101
  H       0.245134      3.055207      2.961500
  H       3.230821     -1.853517      1.150720
  H       1.919029     -2.908360     -0.984110
39
Coordinates from ORCA-job reaction4-IEIP_ts_guess_scan_11-7_orca E -1288.401196087057
  Ir      0.617836     -0.717123      0.418983
  C       0.129622     -2.833255      0.334767
  C      -0.039998     -2.377084      1.689120
  C       2.174930     -2.073146      1.094255
  C       1.481829     -2.652945     -0.025911
  C       1.229430     -1.933735      2.142764
  N      -1.065853      0.129870     -0.513075
  C      -2.336922      0.343192      0.194699
  C      -3.135287      1.530573     -0.324344
  H      -3.965229      1.720487      0.354537
  H      -3.572696      1.349932     -1.307199
  H      -2.534246      2.439070     -0.368262
  C      -3.158278     -0.940895      0.154393
  H      -2.053930      0.547683      1.228279
  H      -4.064506     -0.819961      0.746486
  H      -3.456727     -1.184719     -0.866013
  H      -2.611641     -1.789752      0.561893
  C      -0.911546      0.459225     -1.742459
  C       0.410921      0.279352     -2.264279
  H      -1.718354      0.877422     -2.335776
  C       1.455584      0.111237     -1.353815
  C       2.667081     -0.165792     -2.060940
  S       0.889008      0.128086     -3.884226
  C       2.506613     -0.185666     -3.412329
  H       1.613567      1.147933     -0.614656
  H       3.629586     -0.283343     -1.584371
  H       3.262786     -0.343220     -4.166315
  H      -0.639084     -3.254906     -0.296381
  H      -0.942716     -2.424318      2.278866
  H       1.428991     -1.494036      3.109847
  O       1.708613      2.315895      0.151393
  O       0.552369      1.016006      1.537960
  C       1.108285      2.118738      1.221888
  C       1.042530      3.220720      2.238322
  H       0.928081      4.185206      1.748858
  H       1.983968      3.248846      2.789615
  H       0.237008      3.064168      2.950290
  H       3.229336     -1.852028      1.154219
  H       1.918408     -2.908527     -0.980345
39
Coordinates from ORCA-job reaction4-IEIP_ts_guess_scan_11-7_orca E -1288.401224946404
  Ir      0.616544     -0.719368      0.420221
  C       0.125285     -2.834650      0.341456
  C      -0.043248     -2.377136      1.695375
  C       2.171684     -2.076095      1.098799
  C       1.477758     -2.656772     -0.020196
  C       1.226467     -1.934184      2.147440
  N      -1.066092      0.128767     -0.513558
  C      -2.338141      0.339784      0.193378
  C      -3.137984      1.526606     -0.324655
  H      -3.968490      1.714548      0.354043
  H      -3.574748      1.346422     -1.307885
  H      -2.538210      2.436012     -0.367281
  C      -3.158062     -0.945220      0.151558
  H      -2.056141      0.543537      1.227435
  H      -4.064965     -0.825673      0.742894
  H      -3.455246     -1.188761     -0.869285
  H      -2.610830     -1.793618      0.559097
  C      -0.911189      0.462063     -1.741749
  C       0.410512      0.282985     -2.264828
  H      -1.718249      0.881542     -2.333808
  C       1.453938      0.105024     -1.354593
  C       2.666221     -0.166048     -2.062635
  S       0.889809      0.143323     -3.885320
  C       2.508273     -0.167528     -3.414526
  H       1.615845      1.146237     -0.618652
  H       3.627953     -0.289110     -1.585948
  H       3.265905     -0.314697     -4.169157
  H      -0.644104     -3.256339     -0.288834
  H      -0.945918     -2.422154      2.285341
  H       1.426926     -1.492962      3.113653
  O       1.718516      2.311846      0.149992
  O       0.555194      1.017373      1.535306
  C       1.115500      2.117269      1.219831
  C       1.049371      3.222391      2.232990
  H       0.938220      4.185804      1.740672
  H       1.989386      3.250050      2.786717
  H       0.241575      3.069413      2.943164
  H       3.226442     -1.856613      1.158534
  H       1.913664     -2.914879     -0.974250
39
Coordinates from ORCA-job reaction4-IEIP_ts_guess_scan_11-7_orca E -1288.401257355970
  Ir      0.613383     -0.725223      0.422429
  C       0.116763     -2.838617      0.356078
  C      -0.050591     -2.377904      1.708897
  C       2.164594     -2.081998      1.109962
  C       1.470021     -2.665376     -0.006814
  C       1.219155     -1.934790      2.158243
  N      -1.066564      0.124972     -0.514980
  C      -2.340251      0.331385      0.190810
  C      -3.142835      1.517499     -0.324476
  H      -3.974096      1.701380      0.354315
  H      -3.578761      1.338797     -1.308371
  H      -2.545385      2.428588     -0.364323
  C      -3.157646     -0.955143      0.145453
  H      -2.059985      0.533177      1.225838
  H      -4.065986     -0.838088      0.735050
  H      -3.452135     -1.197791     -0.876384
  H      -2.609747     -1.802956      0.553074
  C      -0.909861      0.469362     -1.740131
  C       0.411143      0.294854     -2.265400
  H      -1.716794      0.894470     -2.328319
  C       1.450995      0.091402     -1.355870
  C       2.665084     -0.166439     -2.065944
  S       0.896931      0.198467     -3.886799
  C       2.511732     -0.133255     -3.418093
  H       1.622663      1.140821     -0.623920
  H       3.624311     -0.307601     -1.589249
  H       3.271336     -0.265135     -4.173589
  H      -0.653370     -3.261130     -0.272766
  H      -0.953546     -2.418387      2.298683
  H       1.420681     -1.489703      3.122476
  O       1.725784      2.310840      0.137933
  O       0.560398      1.020447      1.526918
  C       1.122573      2.117443      1.209040
  C       1.064387      3.224993      2.220224
  H       0.954380      4.187765      1.726495
  H       2.006630      3.250700      2.770260
  H       0.258774      3.075864      2.933678
  H       3.219933     -1.865414      1.169924
  H       1.905273     -2.929088     -0.959612
39
Coordinates from ORCA-job reaction4-IEIP_ts_guess_scan_11-7_orca E -1288.401260853249
  Ir      0.613542     -0.727231      0.422073
  C       0.116500     -2.839958      0.356835
  C      -0.052519     -2.378501      1.709248
  C       2.163590     -2.083394      1.113111
  C       1.470447     -2.667408     -0.004191
  C       1.216756     -1.935306      2.160055
  N      -1.065369      0.124069     -0.515335
  C      -2.338224      0.331272      0.191574
  C      -3.140640      1.517691     -0.323209
  H      -3.971099      1.702000      0.356463
  H      -3.577610      1.339084     -1.306659
  H      -2.542844      2.428530     -0.363697
  C      -3.156257     -0.954806      0.146985
  H      -2.056964      0.533253      1.226284
  H      -4.064503     -0.836824      0.736553
  H      -3.450928     -1.197833     -0.874693
  H      -2.608956     -1.802815      0.555052
  C      -0.909023      0.470608     -1.739826
  C       0.411465      0.295843     -2.265718
  H      -1.715712      0.897805     -2.326765
  C       1.450962      0.088089     -1.356915
  C       2.665082     -0.167058     -2.067784
  S       0.897740      0.206902     -3.887422
  C       2.512057     -0.127788     -3.419855
  H       1.624392      1.138456     -0.625554
  H       3.624051     -0.311575     -1.591553
  H       3.271815     -0.256650     -4.175715
  H      -0.652738     -3.262854     -0.272837
  H      -0.956320     -2.418295      2.297784
  H       1.417157     -1.489514      3.124192
  O       1.722627      2.310018      0.134573
  O       0.559473      1.019104      1.524884
  C       1.121119      2.116188      1.206678
  C       1.062095      3.224292      2.217184
  H       0.950101      4.186534      1.722842
  H       2.004840      3.251778      2.766241
  H       0.257414      3.074427      2.931537
  H       3.218887     -1.866974      1.174480
  H       1.906966     -2.931969     -0.956161
39
Coordinates from ORCA-job reaction4-IEIP_ts_guess_scan_11-7_orca E -1288.401261701059
  Ir      0.613754     -0.728279      0.421600
  C       0.117343     -2.840784      0.356815
  C      -0.054043     -2.378315      1.708700
  C       2.163114     -2.083429      1.116343
  C       1.472003     -2.668313     -0.001770
  C       1.214456     -1.934756      2.161575
  N      -1.065141      0.123636     -0.515700
  C      -2.337565      0.330851      0.192056
  C      -3.140107      1.517583     -0.321844
  H      -3.970127      1.701572      0.358470
  H      -3.577635      1.339506     -1.305136
  H      -2.542348      2.428463     -0.362155
  C      -3.155851     -0.955013      0.147039
  H      -2.055837      0.532552      1.226656
  H      -4.064295     -0.836820      0.736277
  H      -3.450227     -1.197803     -0.874772
  H      -2.609078     -1.803342      0.555118
  C      -0.908979      0.471736     -1.739815
  C       0.411251      0.296260     -2.266075
  H      -1.715394      0.900351     -2.326033
  C       1.450762      0.086287     -1.357927
  C       2.664793     -0.167307     -2.069382
  S       0.897525      0.210840     -3.888058
  C       2.511672     -0.125055     -3.421391
  H       1.624919      1.136610     -0.626217
  H       3.623732     -0.313549     -1.593597
  H       3.271430     -0.252356     -4.177509
  H      -0.650570     -3.264527     -0.273897
  H      -0.958823     -2.417888      2.295749
  H       1.413168     -1.488327      3.125760
  O       1.722013      2.308927      0.132891
  O       0.558347      1.018953      1.523558
  C       1.119840      2.116098      1.204774
  C       1.062354      3.223836      2.215697
  H       0.950279      4.186225      1.721646
  H       2.005711      3.250736      2.763738
  H       0.258384      3.074182      2.930881
  H       3.218248     -1.866706      1.179445
  H       1.910289     -2.933446     -0.952771
