! Opt PBEh-3c
%geom Constraints
{ B 0 20 2.257142857142857 C }
{ B 24 30 1.3285714285714287 C }
    end
end
%output 
xyzfile=True 
end 
%scf 
maxiter 250 
end
%output
Print[P_Hirshfeld] = 1
end
% maxcore
4000
*xyz 1 1
Ir   0.60258114  -0.73387955   0.47479764 
C    0.09676624  -2.83503397   0.37283530 
C   -0.05302205  -2.36418664   1.72547808 
C    2.16048481  -2.10296161   1.11108375 
C    1.44407128  -2.66624082  -0.00582230 
C    1.23569280  -1.94747142   2.16920596 
N   -1.05038515   0.11916871  -0.50322091 
C   -2.33266401   0.34361353   0.18491673 
C   -3.12099550   1.52697504  -0.35843677 
H   -3.95518740   1.73143930   0.31103858 
H   -3.55223515   1.33410477  -1.34165829 
H   -2.51523662   2.43183987  -0.41155840 
C   -3.15858851  -0.93736561   0.15105198 
H   -2.06402847   0.56151584   1.21961248 
H   -4.07477332  -0.80322896   0.72467296 
H   -3.44011303  -1.19654925  -0.87042860 
H   -2.62371111  -1.78193541   0.58241884 
C   -0.88732599   0.42616798  -1.73658366 
C    0.43397455   0.26755603  -2.27280942 
H   -1.70133276   0.81800111  -2.33926403 
C    1.52276632   0.20447362  -1.41272785 
C    2.71334042  -0.06934735  -2.14343043 
S    0.85430491   0.03632922  -3.90605274 
C    2.50023256  -0.17473662  -3.48571931 
H    1.63564805   1.18740095  -0.57158064 
H    3.69686768  -0.12671863  -1.70028826 
H    3.23260843  -0.34654981  -4.25990292 
H   -0.68640580  -3.24181289  -0.25030021 
H   -0.94834825  -2.40157848   2.32756904 
H    1.45394405  -1.51277053   3.13452369 
O    1.69417169   2.29456284   0.18606892 
O    0.54265254   1.00032018   1.58341266 
C    1.09670695   2.10124726   1.26023445 
C    1.03547109   3.20647615   2.27231206 
H    0.98522043   4.17527189   1.78140212 
H    1.95046178   3.19026669   2.86727063 
H    0.19395204   3.08397400   2.94892947 
H    3.21615147  -1.88260858   1.15002370 
H    1.86565184  -2.91653879  -0.96833412 
*
