! Opt PBEh-3c
%geom Constraints
{ B 0 20 2.0428571428571427 C }
{ B 24 30 1.3 C }
    end
end
%output 
xyzfile=True 
end 
%scf 
maxiter 250 
end
%output
Print[P_Hirshfeld] = 1
end
% maxcore
4000
%pal nprocs 4
end
*xyz 1 1
Ir   0.60940163  -0.74817690   0.41479795 
C    0.16094340  -2.86010591   0.34483730 
C   -0.13082593  -2.42015156   1.68641966 
C    2.11632619  -2.05530364   1.27562080 
C    1.54429822  -2.66547561   0.11276336 
C    1.07030846  -1.94077783   2.24201120 
N   -1.08100444   0.09627853  -0.50567193 
C   -2.35616716   0.26430198   0.20747463 
C   -3.14371564   1.49336461  -0.22381880 
H   -3.97817269   1.63482051   0.46116353 
H   -3.57303049   1.39533189  -1.22180703 
H   -2.53578903   2.39778717  -0.19111357 
C   -3.18450660  -1.00780130   0.06655024 
H   -2.08134116   0.39172460   1.25574148 
H   -4.08930537  -0.93262445   0.66847025 
H   -3.48509900  -1.16704187  -0.96980024 
H   -2.63975077  -1.88989921   0.39942496 
C   -0.93322031   0.48451701  -1.71998700 
C    0.38050930   0.32432959  -2.26090705 
H   -1.74526900   0.93100855  -2.28460941 
C    1.39866021  -0.00995591  -1.36910365 
C    2.61924149  -0.20339890  -2.08534783 
S    0.89474222   0.42854932  -3.87711340 
C    2.48962343   0.00727268  -3.42667254 
H    1.65581600   1.19801451  -0.67883761 
H    3.56631439  -0.43629762  -1.62021609 
H    3.26158968  -0.04824996  -4.17921233 
H   -0.53414457  -3.31648011  -0.34456940 
H   -1.08393935  -2.47636403   2.18938696 
H    1.17165375  -1.49098800   3.21953500 
O    1.78068138   2.29809956   0.02937735 
O    0.61178079   1.05421037   1.45921165 
C    1.18738705   2.12450406   1.12479949 
C    1.18940121   3.25800779   2.10460819 
H    1.05838986   4.20924182   1.59355075 
H    2.15942558   3.29180532   2.60369417 
H    0.42022262   3.12986713   2.86051493 
H    3.15789503  -1.82344365   1.43526097 
H    2.07003967  -2.92131052  -0.79568693 
*
