39
Generated by autodE on: 2023-08-14. E = -1288.392387 Ha
Ir    0.63279  -0.72564   0.37561
C     0.18194  -2.85404   0.30094
C    -0.05148  -2.42419   1.65618
C     2.17391  -2.05062   1.15046
C     1.54958  -2.65291   0.00725
C     1.17410  -1.94806   2.16269
N    -1.07131   0.12543  -0.51561
C    -2.32698   0.33562   0.21768
C    -3.11861   1.54610  -0.25551
H    -3.93834   1.72342   0.43889
H    -3.56915   1.40061  -1.23829
H    -2.50796   2.44900  -0.27851
C    -3.16219  -0.93908   0.15494
H    -2.02416   0.50786   1.25157
H    -4.05206  -0.82939   0.77337
H    -3.48789  -1.14563  -0.86532
H    -2.61307  -1.80592   0.51876
C    -0.93290   0.47889  -1.74088
C     0.38307   0.27740  -2.26563
H    -1.73701   0.92563  -2.31567
C     1.39227   0.01077  -1.32172
C     2.62440  -0.23725  -2.02435
S     0.90987   0.24503  -3.86954
C     2.50795  -0.14131  -3.37390
H     1.58180   1.11547  -0.74377
H     3.56927  -0.41351  -1.53044
H     3.28483  -0.25148  -4.11515
H    -0.54467  -3.30264  -0.36054
H    -0.98095  -2.48670   2.20095
H     1.31877  -1.50549   3.13807
O     1.64563   2.37508   0.04151
O     0.60448   1.02301   1.47397
C     1.10655   2.14620   1.13500
C     1.04884   3.23507   2.16927
H     0.98292   4.21199   1.69709
H     1.97084   3.21482   2.75302
H     0.21744   3.09288   2.85473
H     3.22155  -1.82054   1.26747
H     2.03531  -2.90666  -0.92383
