39
Coordinates from ORCA-job reaction4-IEIP_ts_guess_scan_1-13_orca E -1288.391656827108
  Ir      0.562979     -0.738189      0.515340
  C       0.012783     -2.813859      0.368543
  C       0.070419     -2.378160      1.742934
  C       2.173163     -2.150337      0.832471
  C       1.287882     -2.642629     -0.199794
  C       1.434765     -2.026055      2.021927
  N      -1.042399      0.148476     -0.499979
  C      -2.328115      0.462155      0.147202
  C      -3.124442      1.540631     -0.570757
  H      -3.960473      1.839118      0.060332
  H      -3.554922      1.197664     -1.512840
  H      -2.526968      2.432650     -0.761084
  C      -3.142364     -0.814173      0.320509
  H      -2.057512      0.838769      1.135212
  H      -4.069535     -0.588527      0.845282
  H      -3.403964     -1.251093     -0.644170
  H      -2.613112     -1.562368      0.908938
  C      -0.833833      0.350692     -1.742069
  C       0.513528      0.160827     -2.216960
  H      -1.623427      0.685908     -2.409189
  C       1.621952      0.502828     -1.453780
  C       2.817581      0.134317     -2.131148
  S       0.925518     -0.525736     -3.730768
  C       2.594356     -0.418486     -3.355430
  H       1.544890      1.396262     -0.596829
  H       3.809546      0.324543     -1.747467
  H       3.326723     -0.751839     -4.075387
  H      -0.867735     -3.169389     -0.147063
  H      -0.732539     -2.419686      2.464366
  H       1.806009     -1.647887      2.963598
  O       1.387924      2.392201      0.246269
  O       0.541614      0.924671      1.687039
  C       0.954307      2.095868      1.360862
  C       0.917897      3.117577      2.459874
  H       0.854955      4.122106      2.050123
  H       1.844148      3.051817      3.034292
  H       0.094598      2.940576      3.148057
  H       3.220012     -1.916369      0.706963
  H       1.563158     -2.845684     -1.224678
39
Coordinates from ORCA-job reaction4-IEIP_ts_guess_scan_1-13_orca E -1288.391814763054
  Ir      0.566594     -0.739851      0.515147
  C       0.011367     -2.815818      0.374877
  C       0.068322     -2.377585      1.748221
  C       2.172433     -2.155688      0.839397
  C       1.287349     -2.648968     -0.192382
  C       1.432686     -2.026630      2.027405
  N      -1.042827      0.148250     -0.502416
  C      -2.327726      0.460358      0.145751
  C      -3.125030      1.537488     -0.573009
  H      -3.961921      1.835080      0.057341
  H      -3.554170      1.193479     -1.515364
  H      -2.528665      2.430268     -0.763303
  C      -3.139801     -0.817210      0.319596
  H      -2.056751      0.837301      1.133532
  H      -4.066674     -0.593057      0.845502
  H      -3.401874     -1.254260     -0.644894
  H      -2.608561     -1.564684      0.907196
  C      -0.836225      0.355194     -1.747273
  C       0.511972      0.171476     -2.228349
  H      -1.627530      0.694452     -2.410399
  C       1.619137      0.500273     -1.457979
  C       2.815276      0.129586     -2.133996
  S       0.924747     -0.505105     -3.746183
  C       2.593299     -0.410790     -3.363980
  H       1.544253      1.400718     -0.596457
  H       3.806960      0.311419     -1.745422
  H       3.326343     -0.741533     -4.084364
  H      -0.869225     -3.171093     -0.140781
  H      -0.735177     -2.416673      2.469098
  H       1.803590     -1.646809      2.968534
  O       1.391690      2.398116      0.245724
  O       0.542557      0.926515      1.688101
  C       0.957640      2.098176      1.362478
  C       0.920592      3.119181      2.461902
  H       0.857484      4.124068      2.052944
  H       1.846679      3.053209      3.036511
  H       0.097063      2.941299      3.149523
  H       3.220040     -1.924980      0.714761
  H       1.563453     -2.855981     -1.216250
39
Coordinates from ORCA-job reaction4-IEIP_ts_guess_scan_1-13_orca E -1288.391877701905
  Ir      0.566157     -0.741004      0.516112
  C       0.005999     -2.816357      0.383738
  C       0.059602     -2.374438      1.755501
  C       2.166794     -2.159195      0.851584
  C       1.283974     -2.654534     -0.180664
  C       1.423174     -2.024080      2.036725
  N      -1.039476      0.144870     -0.503130
  C      -2.324286      0.456382      0.145165
  C      -3.123100      1.532959     -0.572816
  H      -3.960185      1.829553      0.057779
  H      -3.552128      1.188683     -1.515094
  H      -2.527789      2.426451     -0.763049
  C      -3.135751     -0.821474      0.320067
  H      -2.052813      0.833365      1.132833
  H      -4.062071     -0.597736      0.847190
  H      -3.398820     -1.258602     -0.644092
  H      -2.603298     -1.568570      0.906918
  C      -0.833730      0.355916     -1.748809
  C       0.513831      0.175708     -2.236418
  H      -1.626359      0.698698     -2.408185
  C       1.621445      0.490396     -1.461007
  C       2.817025      0.129874     -2.143981
  S       0.924231     -0.480339     -3.763247
  C       2.593652     -0.391633     -3.381780
  H       1.548365      1.397907     -0.595701
  H       3.809167      0.306691     -1.754212
  H       3.325836     -0.710301     -4.108421
  H      -0.873785     -3.171590     -0.133289
  H      -0.745847     -2.410011      2.474286
  H       1.791885     -1.641250      2.977500
  O       1.400343      2.397287      0.244940
  O       0.537988      0.926686      1.685582
  C       0.959648      2.096017      1.361196
  C       0.923056      3.117594      2.459435
  H       0.865292      4.122613      2.050008
  H       1.846930      3.048158      3.037218
  H       0.096358      2.942839      3.143968
  H       3.215429     -1.931864      0.729663
  H       1.562626     -2.866481     -1.202775
39
Coordinates from ORCA-job reaction4-IEIP_ts_guess_scan_1-13_orca E -1288.391902317411
  Ir      0.567294     -0.743311      0.518099
  C       0.004551     -2.818385      0.393225
  C       0.055686     -2.372290      1.763416
  C       2.165275     -2.162700      0.862731
  C       1.284009     -2.660598     -0.169482
  C       1.418833     -2.022079      2.045658
  N      -1.038202      0.141475     -0.504855
  C      -2.324077      0.451070      0.143132
  C      -3.122741      1.529963     -0.571534
  H      -3.960326      1.824113      0.059526
  H      -3.551159      1.188839     -1.515226
  H      -2.527636      2.424341     -0.758248
  C      -3.136971     -0.826590      0.313603
  H      -2.053704      0.825040      1.132255
  H      -4.063679     -0.603439      0.840297
  H      -3.399371     -1.260763     -0.652077
  H      -2.606009     -1.575737      0.898937
  C      -0.833390      0.357647     -1.749736
  C       0.512534      0.181567     -2.241798
  H      -1.627518      0.702438     -2.406112
  C       1.620633      0.484115     -1.462527
  C       2.815616      0.128970     -2.148874
  S       0.921723     -0.448434     -3.779235
  C       2.591165     -0.374770     -3.393909
  H       1.550289      1.394964     -0.595603
  H       3.808031      0.295454     -1.755313
  H       3.322632     -0.687276     -4.123926
  H      -0.874589     -3.174271     -0.124456
  H      -0.751165     -2.404582      2.480747
  H       1.786024     -1.636071      2.985745
  O       1.407224      2.396048      0.243868
  O       0.537611      0.928447      1.683929
  C       0.963345      2.095234      1.359671
  C       0.929301      3.118575      2.456064
  H       0.874879      4.123244      2.045400
  H       1.852613      3.047065      3.034524
  H       0.101573      2.947025      3.140192
  H       3.214663     -1.937890      0.742702
  H       1.564406     -2.877254     -1.190071
39
Coordinates from ORCA-job reaction4-IEIP_ts_guess_scan_1-13_orca E -1288.391914490447
  Ir      0.567262     -0.746970      0.522738
  C       0.001427     -2.821205      0.405715
  C       0.048489     -2.369956      1.774079
  C       2.161894     -2.167877      0.879351
  C       1.283268     -2.668547     -0.153721
  C       1.411114     -2.020476      2.058911
  N      -1.036028      0.137199     -0.505980
  C      -2.323512      0.444298      0.141156
  C      -3.121043      1.527232     -0.568741
  H      -3.959121      1.818247      0.063089
  H      -3.548871      1.191241     -1.514539
  H      -2.525621      2.422496     -0.750168
  C      -3.138517     -0.833104      0.304032
  H      -2.055115      0.813457      1.132629
  H      -4.066186     -0.610938      0.829416
  H      -3.399168     -1.262657     -0.664190
  H      -2.610218     -1.585619      0.887356
  C      -0.832077      0.357996     -1.749766
  C       0.511264      0.185303     -2.246246
  H      -1.628195      0.703005     -2.403678
  C       1.620675      0.472261     -1.462904
  C       2.814646      0.130931     -2.157119
  S       0.918007     -0.420829     -3.793268
  C       2.588248     -0.345349     -3.412781
  H       1.553710      1.385905     -0.595361
  H       3.807610      0.289906     -1.761963
  H       3.318495     -0.641508     -4.150783
  H      -0.876505     -3.177612     -0.113681
  H      -0.760835     -2.397740      2.488783
  H       1.775776     -1.630698      2.998449
  O       1.416849      2.389834      0.241742
  O       0.537346      0.929885      1.682538
  C       0.968922      2.092670      1.357070
  C       0.938214      3.120364      2.449638
  H       0.888241      4.123825      2.035592
  H       1.860767      3.047068      3.029109
  H       0.109225      2.954456      3.133711
  H       3.212335     -1.946310      0.762697
  H       1.566599     -2.890994     -1.172174
39
Coordinates from ORCA-job reaction4-IEIP_ts_guess_scan_1-13_orca E -1288.391923721831
  Ir      0.565853     -0.746613      0.523882
  C       0.001336     -2.820752      0.406388
  C       0.046168     -2.368977      1.774680
  C       2.160932     -2.166534      0.883071
  C       1.284020     -2.667820     -0.151195
  C       1.408311     -2.018937      2.061425
  N      -1.035459      0.136442     -0.505576
  C      -2.323218      0.441917      0.141926
  C      -3.120404      1.527053     -0.565132
  H      -3.958154      1.816689      0.067777
  H      -3.548764      1.193786     -1.511651
  H      -2.524711      2.422559     -0.744405
  C      -3.138263     -0.835939      0.300734
  H      -2.055352      0.808399      1.134537
  H      -4.066404     -0.615109      0.825841
  H      -3.398028     -1.263026     -0.668815
  H      -2.610548     -1.590106      0.882599
  C      -0.831934      0.357788     -1.749258
  C       0.510696      0.186539     -2.246631
  H      -1.628853      0.701868     -2.402820
  C       1.620970      0.469280     -1.462902
  C       2.814456      0.130161     -2.158503
  S       0.917142     -0.408626     -3.797976
  C       2.586986     -0.342927     -3.415362
  H       1.555721      1.381936     -0.595237
  H       3.807706      0.285036     -1.762488
  H       3.316588     -0.638876     -4.154086
  H      -0.875580     -3.177653     -0.114378
  H      -0.764348     -2.396453      2.488051
  H       1.771457     -1.628542      3.001297
  O       1.420583      2.386743      0.241093
  O       0.536162      0.930755      1.681728
  C       0.970355      2.092245      1.355869
  C       0.939920      3.121743      2.447156
  H       0.891595      4.124637      2.031577
  H       1.861848      3.048089      3.027569
  H       0.110162      2.958005      3.130834
  H       3.211519     -1.944769      0.768190
  H       1.568903     -2.890819     -1.169070
39
Coordinates from ORCA-job reaction4-IEIP_ts_guess_scan_1-13_orca E -1288.391930463041
  Ir      0.565484     -0.746373      0.524953
  C       0.002839     -2.820872      0.405437
  C       0.045503     -2.369362      1.774008
  C       2.161382     -2.165313      0.885569
  C       1.286172     -2.666695     -0.150168
  C       1.407162     -2.018723      2.062925
  N      -1.035472      0.136319     -0.505040
  C      -2.323189      0.440965      0.142937
  C      -3.119178      1.528388     -0.562024
  H      -3.956500      1.817750      0.071611
  H      -3.548065      1.197508     -1.509128
  H      -2.522407      2.423472     -0.739664
  C      -3.138956     -0.836853      0.298175
  H      -2.055563      0.805033      1.136481
  H      -4.067513     -0.616777      0.822920
  H      -3.398020     -1.261729     -0.672528
  H      -2.612189     -1.592618      0.878799
  C      -0.832722      0.356920     -1.749177
  C       0.509593      0.186755     -2.246928
  H      -1.630378      0.699517     -2.402618
  C       1.620282      0.467643     -1.463148
  C       2.813521      0.128503     -2.158681
  S       0.916133     -0.405975     -3.799395
  C       2.585635     -0.342541     -3.416425
  H       1.556327      1.379140     -0.595062
  H       3.806880      0.281921     -1.762397
  H       3.315057     -0.637864     -4.155585
  H      -0.872955     -3.178349     -0.116803
  H      -0.766103     -2.397377      2.486138
  H       1.768796     -1.628449      3.003427
  O       1.422052      2.384768      0.240420
  O       0.535994      0.931285      1.682136
  C       0.970902      2.092498      1.355189
  C       0.940148      3.123100      2.445533
  H       0.891448      4.125482      2.028749
  H       1.862139      3.050345      3.025948
  H       0.110516      2.959915      3.129460
  H       3.212008     -1.942864      0.772389
  H       1.572606     -2.889304     -1.167694
39
Coordinates from ORCA-job reaction4-IEIP_ts_guess_scan_1-13_orca E -1288.391940241951
  Ir      0.565275     -0.746352      0.527668
  C       0.005036     -2.821548      0.405503
  C       0.042269     -2.369687      1.774267
  C       2.161364     -2.164159      0.894041
  C       1.290274     -2.666046     -0.145012
  C       1.402744     -2.018319      2.068514
  N      -1.034741      0.135508     -0.503727
  C      -2.322733      0.437794      0.144920
  C      -3.116057      1.530845     -0.554527
  H      -3.952766      1.818943      0.080532
  H      -3.545603      1.206021     -1.503399
  H      -2.516891      2.425207     -0.727477
  C      -3.140210     -0.840004      0.290944
  H      -2.055996      0.795503      1.140956
  H      -4.069650     -0.622184      0.815133
  H      -3.397737     -1.258893     -0.682763
  H      -2.615398     -1.599908      0.867931
  C      -0.833889      0.355303     -1.748689
  C       0.507424      0.187533     -2.248380
  H      -1.633501      0.695069     -2.401209
  C       1.619223      0.462398     -1.464089
  C       2.811609      0.126322     -2.161720
  S       0.913038     -0.397619     -3.804316
  C       2.582169     -0.337625     -3.422173
  H       1.558461      1.372552     -0.594324
  H       3.805432      0.276946     -1.765592
  H       3.310874     -0.629016     -4.163612
  H      -0.868192     -3.180165     -0.120225
  H      -0.772157     -2.397979      2.483180
  H       1.760584     -1.627805      3.010366
  O       1.427166      2.380658      0.238642
  O       0.536188      0.932889      1.682843
  C       0.973426      2.092993      1.353410
  C       0.941598      3.126352      2.441041
  H       0.892139      4.127507      2.021348
  H       1.863598      3.055846      3.021684
  H       0.111993      2.964393      3.125227
  H       3.212338     -1.941209      0.785193
  H       1.580669     -2.888875     -1.161366
39
Coordinates from ORCA-job reaction4-IEIP_ts_guess_scan_1-13_orca E -1288.391946525132
  Ir      0.565779     -0.746291      0.529349
  C       0.006899     -2.822099      0.405803
  C       0.039606     -2.369699      1.774541
  C       2.161443     -2.163414      0.901158
  C       1.293766     -2.665898     -0.140472
  C       1.398992     -2.017796      2.073143
  N      -1.034052      0.134613     -0.502616
  C      -2.322303      0.435208      0.146443
  C      -3.113403      1.532861     -0.548439
  H      -3.949786      1.819912      0.087523
  H      -3.543189      1.212951     -1.498850
  H      -2.512217      2.426614     -0.717389
  C      -3.141396     -0.842395      0.285092
  H      -2.056218      0.787585      1.144520
  H      -4.071217     -0.626425      0.809395
  H      -3.398275     -1.256047     -0.691028
  H      -2.617864     -1.605849      0.858549
  C      -0.834725      0.354032     -1.748089
  C       0.505832      0.187828     -2.249655
  H      -1.635828      0.692217     -2.399599
  C       1.618480      0.458735     -1.465322
  C       2.810111      0.124585     -2.164760
  S       0.910182     -0.391649     -3.808222
  C       2.579320     -0.333604     -3.427237
  H       1.560154      1.368125     -0.593647
  H       3.804356      0.273071     -1.768904
  H       3.307404     -0.622148     -4.170404
  H      -0.864280     -3.181653     -0.122656
  H      -0.777111     -2.398138      2.480813
  H       1.753586     -1.626911      3.016071
  O       1.431437      2.378253      0.237269
  O       0.536635      0.934090      1.682902
  C       0.975403      2.093351      1.351869
  C       0.942384      3.128559      2.437527
  H       0.892037      4.128906      2.015966
  H       1.864432      3.060026      3.018317
  H       0.112801      2.966970      3.121779
  H       3.212727     -1.940283      0.795819
  H       1.587468     -2.889002     -1.155819
39
Coordinates from ORCA-job reaction4-IEIP_ts_guess_scan_1-13_orca E -1288.391955075867
  Ir      0.567312     -0.746460      0.531756
  C       0.010221     -2.823291      0.406534
  C       0.034523     -2.369540      1.775005
  C       2.161571     -2.162612      0.914361
  C       1.300206     -2.666441     -0.131848
  C       1.391792     -2.016773      2.081581
  N      -1.032843      0.132664     -0.500557
  C      -2.321613      0.430249      0.149165
  C      -3.108517      1.536568     -0.536872
  H      -3.944566      1.821298      0.100550
  H      -3.538331      1.226041     -1.490341
  H      -2.503663      2.429291     -0.697851
  C      -3.143833     -0.846834      0.273923
  H      -2.056716      0.772316      1.151088
  H      -4.073851     -0.634542      0.799391
  H      -3.400402     -1.249951     -0.706688
  H      -2.622169     -1.617276      0.839708
  C      -0.836035      0.352029     -1.746630
  C       0.503221      0.187986     -2.251629
  H      -1.639516      0.688343     -2.396195
  C       1.617400      0.452915     -1.467692
  C       2.807594      0.122700     -2.171059
  S       0.904620     -0.382305     -3.814528
  C       2.574134     -0.327038     -3.436228
  H       1.563110      1.360891     -0.592339
  H       3.802674      0.268361     -1.776287
  H       3.300976     -0.610989     -4.182373
  H      -0.857286     -3.184480     -0.126800
  H      -0.786387     -2.398041      2.476402
  H       1.740264     -1.624916      3.026400
  O       1.439389      2.374812      0.234708
  O       0.538116      0.936351      1.682341
  C       0.979208      2.094089      1.348855
  C       0.943698      3.132600      2.431011
  H       0.891272      4.131558      2.006348
  H       1.865973      3.068091      3.011890
  H       0.114318      2.971169      3.115490
  H       3.213463     -1.939511      0.815432
  H       1.600042     -2.890132     -1.145281
39
Coordinates from ORCA-job reaction4-IEIP_ts_guess_scan_1-13_orca E -1288.391959797405
  Ir      0.568821     -0.746740      0.532898
  C       0.013265     -2.824258      0.406655
  C       0.030367     -2.369302      1.774803
  C       2.161857     -2.161826      0.924913
  C       1.305945     -2.667081     -0.125054
  C       1.385689     -2.015538      2.087993
  N      -1.032108      0.130792     -0.499031
  C      -2.321126      0.426284      0.151389
  C      -3.104662      1.539511     -0.527356
  H      -3.940629      1.822055      0.111123
  H      -3.534233      1.236586     -1.483348
  H      -2.497056      2.431528     -0.681639
  C      -3.145967     -0.850185      0.265283
  H      -2.056940      0.759980      1.156287
  H      -4.075444     -0.640946      0.792921
  H      -3.403543     -1.244193     -0.718772
  H      -2.625189     -1.626568      0.823743
  C      -0.837044      0.350689     -1.745289
  C       0.501279      0.187788     -2.252949
  H      -1.641969      0.686698     -2.393266
  C       1.616629      0.449232     -1.469782
  C       2.805667      0.121350     -2.176138
  S       0.899961     -0.376019     -3.818878
  C       2.570088     -0.322719     -3.442905
  H       1.565194      1.355756     -0.591392
  H       3.801393      0.264846     -1.782214
  H       3.295883     -0.603902     -4.191104
  H      -0.851191     -3.186784     -0.130693
  H      -0.794011     -2.397942      2.472116
  H       1.728839     -1.622566      3.034314
  O       1.445861      2.372617      0.232683
  O       0.539346      0.937974      1.680947
  C       0.982131      2.094467      1.346213
  C       0.944483      3.135537      2.425779
  H       0.890262      4.133461      1.998887
  H       1.866983      3.074376      3.006663
  H       0.115339      2.974029      3.110507
  H       3.214227     -1.938785      0.831322
  H       1.610973     -2.891012     -1.136893
39
Coordinates from ORCA-job reaction4-IEIP_ts_guess_scan_1-13_orca E -1288.391961406272
  Ir      0.569865     -0.747191      0.533200
  C       0.015871     -2.825057      0.406109
  C       0.027173     -2.369286      1.774034
  C       2.162191     -2.161104      0.932644
  C       1.310732     -2.667671     -0.120296
  C       1.380853     -2.014415      2.092365
  N      -1.031957      0.129321     -0.498144
  C      -2.321000      0.423470      0.152980
  C      -3.102288      1.541456     -0.520494
  H      -3.938451      1.821923      0.118638
  H      -3.531372      1.243987     -1.478394
  H      -2.493120      2.433260     -0.669657
  C      -3.147650     -0.852516      0.259390
  H      -2.057148      0.751286      1.159877
  H      -4.076101     -0.645637      0.789752
  H      -3.407089     -1.239463     -0.726975
  H      -2.626921     -1.633434      0.811549
  C      -0.837802      0.350212     -1.744271
  C       0.499947      0.187546     -2.253605
  H      -1.643257      0.687016     -2.391227
  C       1.616121      0.447253     -1.471203
  C       2.804328      0.120890     -2.179761
  S       0.896482     -0.372656     -3.821241
  C       2.567236     -0.320726     -3.447021
  H       1.566346      1.352401     -0.590828
  H       3.800489      0.263280     -1.786541
  H       3.292186     -0.600594     -4.196515
  H      -0.846188     -3.188558     -0.134421
  H      -0.799893     -2.398194      2.468148
  H       1.719706     -1.620368      3.039806
  O       1.450712      2.371279      0.231281
  O       0.540202      0.939107      1.679327
  C       0.984316      2.094643      1.344228
  C       0.945400      3.137572      2.422070
  H       0.889868      4.134738      1.993583
  H       1.868189      3.078790      3.002746
  H       0.116614      2.976158      3.107258
  H       3.214913     -1.938082      0.843278
  H       1.619868     -2.891447     -1.130930
39
Coordinates from ORCA-job reaction4-IEIP_ts_guess_scan_1-13_orca E -1288.391961577871
  Ir      0.570000     -0.747393      0.533043
  C       0.017401     -2.825357      0.405162
  C       0.025561     -2.369446      1.773079
  C       2.162380     -2.160274      0.936129
  C       1.313400     -2.667606     -0.118441
  C       1.378307     -2.013645      2.094074
  N      -1.032204      0.128758     -0.497998
  C      -2.321121      0.422389      0.153629
  C      -3.101852      1.541955     -0.517823
  H      -3.938287      1.821124      0.121534
  H      -3.530542      1.246544     -1.476526
  H      -2.492532      2.434007     -0.664800
  C      -3.148278     -0.853485      0.257459
  H      -2.057238      0.748185      1.161166
  H      -4.075859     -0.647708      0.789768
  H      -3.409276     -1.237387     -0.729680
  H      -2.627077     -1.636335      0.806430
  C      -0.838248      0.350427     -1.743947
  C       0.499305      0.187595     -2.253853
  H      -1.643600      0.688167     -2.390568
  C       1.615807      0.446722     -1.471790
  C       2.803675      0.120373     -2.180958
  S       0.894988     -0.371465     -3.821996
  C       2.566044     -0.320460     -3.448343
  H       1.566590      1.351103     -0.590766
  H       3.799962      0.262039     -1.787794
  H       3.290577     -0.600215     -4.198273
  H      -0.843347     -3.189354     -0.137127
  H      -0.802887     -2.398743      2.465526
  H       1.714858     -1.618992      3.042094
  O       1.453108      2.370677      0.230779
  O       0.540245      0.939606      1.678245
  C       0.985413      2.094627      1.343383
  C       0.946399      3.138274      2.420643
  H       0.890484      4.135109      1.991447
  H       1.869395      3.080230      3.001065
  H       0.117883      2.977190      3.106240
  H       3.215249     -1.937090      0.849040
  H       1.624690     -2.890958     -1.128511
