! Opt PBEh-3c
%geom Constraints
{ B 0 20 2.0 C }
{ B 24 30 1.4285714285714286 C }
    end
end
%output 
xyzfile=True 
end 
%scf 
maxiter 250 
end
%output
Print[P_Hirshfeld] = 1
end
% maxcore
4000
*xyz 1 1
Ir   0.62459838  -0.72679426   0.39200490 
C    0.16642755  -2.85022012   0.31581201 
C   -0.06264844  -2.41073544   1.66836893 
C    2.16529816  -2.05526266   1.15817650 
C    1.53350085  -2.65462091   0.01665908 
C    1.16963904  -1.94084701   2.17087968 
N   -1.07240866   0.12336127  -0.51394858 
C   -2.33510512   0.32615305   0.21032817 
C   -3.13094656   1.53160515  -0.26891486 
H   -3.95566202   1.70503280   0.42051744 
H   -3.57495301   1.38236482  -1.25409759 
H   -2.52544292   2.43801773  -0.28953599 
C   -3.16318879  -0.95271140   0.14225538 
H   -2.04153950   0.50125690   1.24643679 
H   -4.06008715  -0.84646649   0.75110235 
H   -3.47717148  -1.16330508  -0.88085502 
H   -2.61392801  -1.81618241   0.51378135 
C   -0.92821123   0.48080637  -1.73726027 
C    0.38869564   0.29073648  -2.26446915 
H   -1.73386249   0.92324519  -2.31357237 
C    1.40736699   0.03109906  -1.33603917 
C    2.63190021  -0.21695716  -2.04329451 
S    0.90117530   0.25373695  -3.87594120 
C    2.50302774  -0.12573201  -3.39355537 
H    1.60334715   1.12367055  -0.69780809 
H    3.58100206  -0.39192741  -1.55724694 
H    3.27373729  -0.23805614  -4.14090678 
H   -0.56482275  -3.29426469  -0.34366232 
H   -0.99013565  -2.46846086   2.21705828 
H    1.31950622  -1.49609718   3.14452801 
O    1.69749122   2.34056871   0.07169338 
O    0.58846640   1.02663598   1.48650160 
C    1.12526364   2.13345633   1.15560358 
C    1.07252458   3.23543057   2.17459296 
H    0.97355032   4.20294742   1.68828805 
H    2.01170078   3.24639399   2.73041641 
H    0.26268169   3.08784359   2.88376808 
H    3.21391674  -1.82680031   1.26943395 
H    2.01466588  -2.90973143  -0.91635854 
*
