39
Generated by autodE on: 2023-08-14. E = -1288.399774 Ha
Ir    0.61830  -0.71591   0.41429
C     0.13109  -2.83341   0.34244
C    -0.02889  -2.37074   1.69567
C     2.18083  -2.06736   1.08283
C     1.47993  -2.65317  -0.02997
C     1.24385  -1.92425   2.13788
N    -1.06585   0.13186  -0.51885
C    -2.33464   0.35118   0.19136
C    -3.13918   1.52913  -0.33902
H    -3.96604   1.72497   0.34191
H    -3.58166   1.33378  -1.31683
H    -2.54165   2.43910  -0.39788
C    -3.15263  -0.93570   0.17086
H    -2.04707   0.56887   1.22100
H    -4.05749  -0.80824   0.76360
H    -3.45328  -1.19424  -0.84526
H    -2.60308  -1.77732   0.58902
C    -0.91303   0.45964  -1.74844
C     0.40842   0.27459  -2.27138
H    -1.71940   0.87903  -2.34144
C     1.45485   0.11214  -1.35922
C     2.66776  -0.16394  -2.06678
S     0.88521   0.11044  -3.88845
C     2.50658  -0.18967  -3.41721
H     1.60637   1.12928  -0.63780
H     3.63062  -0.27561  -1.58961
H     3.26220  -0.34658  -4.17187
H    -0.64229  -3.25814  -0.28091
H    -0.92755  -2.41461   2.29185
H     1.45049  -1.47873   3.10079
O     1.69251   2.33413   0.15134
O     0.54994   1.01415   1.53237
C     1.10169   2.12384   1.22066
C     1.03522   3.20964   2.25606
H     1.02668   4.18968   1.78583
H     1.92735   3.15371   2.88233
H     0.16829   3.09580   2.90179
H     3.23532  -1.84425   1.13389
H     1.90963  -2.91393  -0.98610
