! Opt PBEh-3c
%geom Constraints
{ B 0 20 2.428571428571429 C }
{ B 24 30 1.4428571428571428 C }
    end
end
%output 
xyzfile=True 
end 
%scf 
maxiter 250 
end
%output
Print[P_Hirshfeld] = 1
end
% maxcore
4000
*xyz 1 1
Ir   0.59331383  -0.71865293   0.45267210 
C    0.04225484  -2.80289560   0.34357342 
C    0.11695566  -2.35105624   1.71147688 
C    2.20582136  -2.12827202   0.76779160 
C    1.30924633  -2.64046213  -0.24420901 
C    1.48186394  -1.98865240   1.96508602 
N   -1.04533755   0.16903569  -0.52030338 
C   -2.31519360   0.49468278   0.14745405 
C   -3.12312332   1.56290549  -0.57156602 
H   -3.95124400   1.86702405   0.06715261 
H   -3.56514030   1.20765225  -1.50386995 
H   -2.53014610   2.45416008  -0.77916024 
C   -3.12394275  -0.78015852   0.35430906 
H   -2.02178793   0.88289401   1.12414830 
H   -4.03636003  -0.54866402   0.90174508 
H   -3.41148051  -1.22639536  -0.59859602 
H   -2.57804817  -1.52203724   0.93549460 
C   -0.84695570   0.37636719  -1.76416489 
C    0.50337469   0.15255030  -2.23313156 
H   -1.62832886   0.73628701  -2.42734797 
C    1.60510814   0.48676424  -1.45289891 
C    2.80975925   0.07183124  -2.09129979 
S    0.93096684  -0.60902102  -3.69839624 
C    2.59821248  -0.52495179  -3.29408191 
H    1.53500827   1.37016126  -0.67698606 
H    3.79575032   0.26060904  -1.69220516 
H    3.33494227  -0.90241933  -3.98701272 
H   -0.84448864  -3.16717830  -0.15499401 
H   -0.67547809  -2.38409512   2.44467840 
H    1.86420185  -1.59343282   2.89525855 
O    1.31001859   2.46402279   0.25902243 
O    0.53504631   0.91312772   1.66272581 
C    0.90706021   2.11461642   1.36504786 
C    0.84454292   3.08633484   2.51036600 
H    0.79980212   4.10847727   2.14444174 
H    1.74992024   2.98636203   3.11224721 
H   -0.00125155   2.88673193   3.16502382 
H    3.25183286  -1.89907338   0.62855193 
H    1.57267378  -2.86598944  -1.26730360 
*
