39
Coordinates from ORCA-job reaction4-IEIP_ts_guess_scan_2-0_orca E -1288.399042890352
  Ir      0.588223     -0.718096      0.439981
  C       0.038989     -2.800341      0.313845
  C       0.139626     -2.356208      1.684395
  C       2.209217     -2.127240      0.705597
  C       1.294429     -2.631125     -0.294547
  C       1.510827     -1.999953      1.918155
  N      -1.046856      0.187660     -0.521206
  C      -2.312856      0.533043      0.143351
  C      -3.137838      1.559162     -0.615593
  H      -3.967582      1.877617      0.013844
  H      -3.577867      1.158143     -1.530193
  H      -2.559537      2.450129     -0.862474
  C      -3.108341     -0.737425      0.416578
  H      -2.012776      0.967737      1.098344
  H      -4.017504     -0.487738      0.961344
  H      -3.401608     -1.229270     -0.511881
  H      -2.552093     -1.447379      1.027127
  C      -0.832576      0.387712     -1.760540
  C       0.523276      0.134217     -2.205726
  H      -1.597095      0.757712     -2.437803
  C       1.629872      0.540907     -1.470912
  C       2.832248      0.089129     -2.088116
  S       0.943988     -0.731666     -3.617985
  C       2.614709     -0.600472     -3.238744
  H       1.541402      1.397846     -0.702197
  H       3.819762      0.316272     -1.713563
  H       3.348990     -1.024933     -3.906707
  H      -0.857312     -3.161212     -0.169862
  H      -0.638947     -2.394997      2.432328
  H       1.910438     -1.613137      2.844603
  O       1.236555      2.494138      0.275152
  O       0.548133      0.891775      1.669227
  C       0.873895      2.113650      1.380717
  C       0.804050      3.057780      2.549558
  H       0.727776      4.085891      2.206025
  H       1.720275      2.968705      3.136490
  H      -0.026537      2.823832      3.212494
  H       3.250470     -1.889734      0.544897
  H       1.539547     -2.842938     -1.325260
39
Coordinates from ORCA-job reaction4-IEIP_ts_guess_scan_2-0_orca E -1288.398319354396
  Ir      0.592451     -0.708760      0.432191
  C       0.053791     -2.794489      0.296647
  C       0.146268     -2.356580      1.669572
  C       2.218856     -2.112289      0.700836
  C       1.311019     -2.616839     -0.305255
  C       1.514267     -1.993226      1.910562
  N      -1.053523      0.191646     -0.527605
  C      -2.316048      0.541272      0.140087
  C      -3.146238      1.557476     -0.626377
  H      -3.973964      1.881196      0.003024
  H      -3.589152      1.145601     -1.534779
  H      -2.570708      2.446798     -0.885399
  C      -3.107104     -0.728028      0.430751
  H      -2.011673      0.986609      1.088795
  H      -4.013833     -0.474568      0.977804
  H      -3.404321     -1.230140     -0.490925
  H      -2.545866     -1.430311      1.045653
  C      -0.847157      0.378786     -1.771314
  C       0.508646      0.125274     -2.216277
  H      -1.615912      0.737780     -2.449708
  C       1.611078      0.555442     -1.487659
  C       2.816525      0.090211     -2.089915
  S       0.935416     -0.778607     -3.602084
  C       2.604382     -0.635152     -3.219110
  H       1.520679      1.457647     -0.769742
  H       3.802425      0.336738     -1.723563
  H       3.342033     -1.074164     -3.873702
  H      -0.838412     -3.158033     -0.192573
  H      -0.635048     -2.403505      2.414109
  H       1.907779     -1.608251      2.840371
  O       1.345556      2.467423      0.325560
  O       0.529797      0.891293      1.674527
  C       0.906297      2.102410      1.408765
  C       0.799861      3.049354      2.572672
  H       0.776199      4.079097      2.226421
  H       1.677638      2.931614      3.211031
  H      -0.074354      2.842574      3.186644
  H       3.259777     -1.869804      0.546086
  H       1.561946     -2.824303     -1.335377
39
Coordinates from ORCA-job reaction4-IEIP_ts_guess_scan_2-0_orca E -1288.399108281879
  Ir      0.596484     -0.724388      0.440273
  C       0.037839     -2.806618      0.323183
  C       0.136220     -2.359289      1.692578
  C       2.209782     -2.141196      0.718836
  C       1.295975     -2.645476     -0.281917
  C       1.507648     -2.006107      1.928497
  N      -1.043127      0.187037     -0.521842
  C      -2.306610      0.533713      0.144773
  C      -3.129470      1.561515     -0.614067
  H      -3.958900      1.881374      0.015056
  H      -3.569587      1.161387     -1.529076
  H      -2.549463      2.451498     -0.860559
  C      -3.103275     -0.735953      0.417812
  H      -2.004197      0.967065      1.099632
  H      -4.011133     -0.485417      0.964325
  H      -3.398830     -1.226353     -0.510683
  H      -2.546817     -1.447233      1.026717
  C      -0.831919      0.394962     -1.762665
  C       0.523509      0.146435     -2.215845
  H      -1.598482      0.771307     -2.434094
  C       1.631535      0.537494     -1.472305
  C       2.832258      0.088723     -2.097052
  S       0.941130     -0.707735     -3.635417
  C       2.612330     -0.588386     -3.253865
  H       1.554138      1.412343     -0.719741
  H       3.820797      0.313348     -1.723811
  H       3.345124     -1.005431     -3.927933
  H      -0.858326     -3.165843     -0.161964
  H      -0.644230     -2.393664      2.438663
  H       1.905953     -1.617422      2.854706
  O       1.212701      2.487344      0.269094
  O       0.546927      0.886873      1.671967
  C       0.862995      2.109230      1.380051
  C       0.793568      3.057427      2.545778
  H       0.707052      4.083601      2.198983
  H       1.714181      2.977707      3.127094
  H      -0.030853      2.819565      3.214854
  H       3.252790     -1.910085      0.561144
  H       1.543648     -2.864160     -1.310441
39
Coordinates from ORCA-job reaction4-IEIP_ts_guess_scan_2-0_orca E -1288.398588964973
  Ir      0.582656     -0.720208      0.446965
  C       0.027215     -2.802967      0.347498
  C       0.121482     -2.342689      1.712621
  C       2.197032     -2.131027      0.741659
  C       1.286531     -2.645863     -0.256390
  C       1.491600     -1.985737      1.948417
  N      -1.049725      0.175356     -0.527172
  C      -2.317466      0.517842      0.135006
  C      -3.144958      1.540084     -0.626472
  H      -3.976970      1.856401      0.001064
  H      -3.581939      1.136238     -1.541299
  H      -2.569460      2.432845     -0.873446
  C      -3.108990     -0.754818      0.409476
  H      -2.019786      0.954713      1.089716
  H      -4.019297     -0.507318      0.953363
  H      -3.400066     -1.248888     -0.518473
  H      -2.550567     -1.461928      1.021283
  C      -0.837821      0.381255     -1.767405
  C       0.517493      0.142220     -2.225953
  H      -1.606066      0.756104     -2.437482
  C       1.626386      0.517424     -1.476711
  C       2.828686      0.105037     -2.122559
  S       0.935669     -0.658865     -3.675524
  C       2.608796     -0.527985     -3.304333
  H       1.537725      1.340358     -0.670590
  H       3.816812      0.318253     -1.741487
  H       3.341422     -0.915557     -3.996083
  H      -0.867411     -3.167552     -0.136495
  H      -0.660959     -2.370373      2.456880
  H       1.887046     -1.587603      2.871837
  O       1.382472      2.464507      0.310320
  O       0.532274      0.902768      1.662137
  C       0.927385      2.107466      1.390094
  C       0.825616      3.060932      2.548893
  H       0.819436      4.089340      2.197988
  H       1.696524      2.933446      3.194742
  H      -0.056362      2.869305      3.156697
  H       3.240149     -1.899776      0.584366
  H       1.536805     -2.873554     -1.282406
39
Coordinates from ORCA-job reaction4-IEIP_ts_guess_scan_2-0_orca E -1288.399146692445
  Ir      0.590760     -0.718706      0.440793
  C       0.036776     -2.801288      0.325783
  C       0.131873     -2.351965      1.694474
  C       2.206465     -2.130810      0.723247
  C       1.295473     -2.638374     -0.278135
  C       1.501888     -1.995510      1.931715
  N      -1.044294      0.185263     -0.522832
  C      -2.310308      0.527839      0.142523
  C      -3.136724      1.554512     -0.614163
  H      -3.967294      1.870178      0.015599
  H      -3.575652      1.154896     -1.529918
  H      -2.559852      2.447084     -0.858621
  C      -3.104235     -0.744077      0.413471
  H      -2.010248      0.960685      1.098352
  H      -4.013253     -0.496501      0.959470
  H      -3.397680     -1.234156     -0.515853
  H      -2.546577     -1.454594      1.021982
  C      -0.832668      0.392627     -1.763105
  C       0.521727      0.145722     -2.218881
  H      -1.600427      0.765852     -2.434648
  C       1.631184      0.532667     -1.475771
  C       2.831195      0.085637     -2.102312
  S       0.937925     -0.693999     -3.646768
  C       2.609691     -0.581469     -3.264740
  H       1.554130      1.396352     -0.709790
  H       3.819991      0.300929     -1.724214
  H       3.341225     -0.997977     -3.940561
  H      -0.857980     -3.162738     -0.160310
  H      -0.649795     -2.386408      2.439245
  H       1.897856     -1.604350      2.857878
  O       1.265284      2.483587      0.282423
  O       0.537872      0.893351      1.668524
  C       0.880957      2.110356      1.383811
  C       0.804129      3.058327      2.549096
  H       0.745079      4.086384      2.202137
  H       1.709925      2.960099      3.150514
  H      -0.039400      2.835503      3.199326
  H       3.249323     -1.897761      0.567060
  H       1.545029     -2.857975     -1.306062
39
Coordinates from ORCA-job reaction4-IEIP_ts_guess_scan_2-0_orca E -1288.399149064889
  Ir      0.593610     -0.722208      0.442288
  C       0.035426     -2.804156      0.330141
  C       0.130663     -2.353466      1.698331
  C       2.206348     -2.137791      0.728014
  C       1.294821     -2.644818     -0.273285
  C       1.501246     -1.999247      1.935768
  N      -1.043211      0.184633     -0.523432
  C      -2.308857      0.528229      0.141863
  C      -3.133370      1.556197     -0.615034
  H      -3.963916      1.872710      0.014319
  H      -3.572194      1.157511     -1.531257
  H      -2.555184      2.448105     -0.858803
  C      -3.104591     -0.742824      0.411667
  H      -2.008619      0.960343      1.097954
  H      -4.013585     -0.494251      0.957209
  H      -3.398139     -1.232053     -0.518077
  H      -2.548302     -1.454408      1.020166
  C      -0.833155      0.390916     -1.764373
  C       0.520834      0.145267     -2.220782
  H      -1.601926      0.763124     -2.435467
  C       1.629093      0.531434     -1.475468
  C       2.830186      0.092447     -2.105611
  S       0.937995     -0.699886     -3.644922
  C       2.610115     -0.572660     -3.269525
  H       1.550451      1.398542     -0.713048
  H       3.818519      0.314302     -1.730157
  H       3.342581     -0.981278     -3.949124
  H      -0.859763     -3.164412     -0.156070
  H      -0.651438     -2.385523      2.442750
  H       1.897520     -1.607637      2.861618
  O       1.257405      2.483897      0.279992
  O       0.541520      0.891960      1.670198
  C       0.880424      2.109573      1.383626
  C       0.804569      3.058323      2.548334
  H       0.740132      4.085859      2.200807
  H       1.713167      2.964039      3.146146
  H      -0.035433      2.832788      3.202196
  H       3.249904     -1.907584      0.572433
  H       1.544525     -2.866807     -1.300646
39
Coordinates from ORCA-job reaction4-IEIP_ts_guess_scan_2-0_orca E -1288.399157251511
  Ir      0.593075     -0.720891      0.441787
  C       0.036417     -2.802985      0.329067
  C       0.131173     -2.352593      1.697341
  C       2.206806     -2.135200      0.727192
  C       1.295755     -2.642625     -0.274299
  C       1.501440     -1.997439      1.934924
  N      -1.043381      0.184525     -0.523466
  C      -2.309189      0.527316      0.142090
  C      -3.134025      1.555842     -0.613735
  H      -3.964491      1.871654      0.016082
  H      -3.573025      1.157956     -1.530215
  H      -2.556025      2.448057     -0.856812
  C      -3.104755     -0.744085      0.410803
  H      -2.009057      0.958662      1.098558
  H      -4.013813     -0.496108      0.956513
  H      -3.398177     -1.232586     -0.519363
  H      -2.548398     -1.456109      1.018725
  C      -0.833592      0.391112     -1.764319
  C       0.520313      0.146400     -2.221436
  H      -1.602718      0.763148     -2.435080
  C       1.628738      0.532175     -1.476248
  C       2.829693      0.089858     -2.104173
  S       0.937797     -0.692791     -3.648844
  C       2.609429     -0.576328     -3.267478
  H       1.550456      1.397751     -0.711925
  H       3.818014      0.307464     -1.726210
  H       3.341659     -0.989152     -3.944796
  H      -0.858487     -3.163669     -0.157356
  H      -0.651017     -2.385225      2.441634
  H       1.897348     -1.605679      2.860868
  O       1.259657      2.484398      0.280363
  O       0.540364      0.892804      1.669518
  C       0.880149      2.110243      1.383232
  C       0.805145      3.058626      2.548294
  H       0.742649      4.086418      2.201179
  H       1.713191      2.962554      3.146675
  H      -0.035659      2.834192      3.201510
  H       3.250245     -1.904271      0.571842
  H       1.545665     -2.864229     -1.301699
39
Coordinates from ORCA-job reaction4-IEIP_ts_guess_scan_2-0_orca E -1288.399158517318
  Ir      0.592410     -0.720222      0.442295
  C       0.036714     -2.802234      0.328434
  C       0.130604     -2.352420      1.696905
  C       2.206616     -2.133725      0.727725
  C       1.296270     -2.641115     -0.274386
  C       1.500566     -1.996752      1.935199
  N      -1.042829      0.184186     -0.522804
  C      -2.308766      0.526825      0.142778
  C      -3.133213      1.556498     -0.611981
  H      -3.963421      1.872136      0.018278
  H      -3.572633      1.159780     -1.528757
  H      -2.554778      2.448637     -0.854291
  C      -3.104912     -0.744501      0.410157
  H      -2.008674      0.957147      1.099714
  H      -4.014001     -0.496674      0.955896
  H      -3.398296     -1.232035     -0.520524
  H      -2.548977     -1.457332      1.017532
  C      -0.833199      0.390090     -1.763739
  C       0.520455      0.145137     -2.221368
  H      -1.602678      0.761208     -2.434576
  C       1.629184      0.530777     -1.476489
  C       2.829997      0.088506     -2.104550
  S       0.937666     -0.693534     -3.649008
  C       2.609479     -0.575973     -3.268838
  H       1.551074      1.396082     -0.711550
  H       3.818369      0.305541     -1.726400
  H       3.341475     -0.988024     -3.946884
  H      -0.857824     -3.162971     -0.158626
  H      -0.651987     -2.385467      2.440754
  H       1.895880     -1.605089      2.861439
  O       1.260093      2.483193      0.280174
  O       0.539300      0.892720      1.669787
  C       0.879947      2.109761      1.383099
  C       0.804557      3.058965      2.547488
  H       0.742679      4.086562      2.199696
  H       1.712191      2.962886      3.146497
  H      -0.036738      2.835273      3.200338
  H       3.250076     -1.902390      0.573083
  H       1.546693     -2.862263     -1.301757
