39
Coordinates from ORCA-job reaction4-IEIP_ts_guess_scan_2-10_orca E -1288.394383890049
  Ir      0.572701     -0.729028      0.483698
  C       0.019443     -2.806079      0.348656
  C       0.099688     -2.369712      1.721721
  C       2.186409     -2.141806      0.775178
  C       1.285013     -2.636818     -0.241497
  C       1.467901     -2.015876      1.976811
  N      -1.046937      0.162196     -0.510288
  C      -2.325345      0.485591      0.144390
  C      -3.135737      1.542007     -0.589731
  H      -3.969281      1.846751      0.041599
  H      -3.570368      1.175351     -1.521036
  H      -2.547897      2.435321     -0.803065
  C      -3.130529     -0.790172      0.358494
  H      -2.043078      0.886529      1.119469
  H      -4.051432     -0.555764      0.890318
  H      -3.403396     -1.250820     -0.591913
  H      -2.590196     -1.521639      0.957755
  C      -0.837114      0.365506     -1.750803
  C       0.514135      0.156426     -2.212436
  H      -1.618298      0.712168     -2.421659
  C       1.615860      0.506364     -1.441726
  C       2.818416      0.110315     -2.093183
  S       0.939912     -0.578707     -3.696722
  C       2.606369     -0.475820     -3.302594
  H       1.534275      1.394388     -0.618575
  H       3.806108      0.304566     -1.700708
  H       3.344209     -0.835878     -4.003803
  H      -0.870052     -3.161309     -0.151577
  H      -0.690717     -2.410634      2.456864
  H       1.854795     -1.635382      2.911213
  O       1.348445      2.417782      0.253187
  O       0.540206      0.915414      1.679289
  C       0.931299      2.100237      1.365309
  C       0.885103      3.101440      2.483765
  H       0.841097      4.114116      2.092328
  H       1.797331      3.012929      3.077164
  H       0.045867      2.921442      3.152098
  H       3.231088     -1.908039      0.632454
  H       1.544074     -2.844167     -1.269703
39
Coordinates from ORCA-job reaction4-IEIP_ts_guess_scan_2-10_orca E -1288.394544387430
  Ir      0.576548     -0.731793      0.484163
  C       0.016606     -2.809047      0.357391
  C       0.095835     -2.368982      1.729050
  C       2.184614     -2.149668      0.785167
  C       1.283534     -2.645873     -0.231034
  C       1.464213     -2.017184      1.984817
  N      -1.046578      0.161269     -0.512468
  C      -2.324163      0.483248      0.143166
  C      -3.134891      1.539075     -0.591329
  H      -3.969102      1.843225      0.039390
  H      -3.568415      1.172014     -1.523026
  H      -2.547554      2.432810     -0.804323
  C      -3.127635     -0.793586      0.356904
  H      -2.041580      0.883832      1.118293
  H      -4.048305     -0.560661      0.889753
  H      -3.400818     -1.253794     -0.593622
  H      -2.585658     -1.524805      0.955050
  C      -0.838891      0.369306     -1.755755
  C       0.513136      0.166641     -2.223860
  H      -1.621864      0.720313     -2.422330
  C       1.613536      0.502494     -1.445299
  C       2.816484      0.108793     -2.098461
  S       0.939261     -0.555393     -3.714242
  C       2.605479     -0.462558     -3.315024
  H       1.534159      1.396782     -0.618757
  H       3.803956      0.296508     -1.702136
  H       3.343877     -0.816342     -4.018744
  H      -0.872951     -3.163824     -0.143049
  H      -0.695555     -2.406173      2.463255
  H       1.850585     -1.634619      2.918581
  O       1.352653      2.422209      0.251526
  O       0.541087      0.916762      1.679582
  C       0.935026      2.101813      1.365680
  C       0.887610      3.102851      2.484066
  H       0.843096      4.115644      2.092840
  H       1.799646      3.014798      3.077765
  H       0.048153      2.922074      3.151838
  H       3.230367     -1.920328      0.643716
  H       1.543874     -2.858641     -1.257794
39
Coordinates from ORCA-job reaction4-IEIP_ts_guess_scan_2-10_orca E -1288.394604282895
  Ir      0.575810     -0.732357      0.485557
  C       0.012394     -2.809384      0.365680
  C       0.087381     -2.365971      1.735935
  C       2.179590     -2.151838      0.797960
  C       1.281486     -2.650204     -0.219309
  C       1.454690     -2.014181      1.994542
  N      -1.043437      0.157824     -0.512634
  C      -2.321144      0.478744      0.143111
  C      -3.132770      1.535166     -0.589625
  H      -3.967119      1.838103      0.041528
  H      -3.566210      1.169011     -1.521686
  H      -2.545974      2.429504     -0.801552
  C      -3.124458     -0.798390      0.355956
  H      -2.038417      0.878108      1.118728
  H      -4.044856     -0.566253      0.889686
  H      -3.398105     -1.257557     -0.594919
  H      -2.581791     -1.530007      0.952832
  C      -0.836851      0.369654     -1.756794
  C       0.514491      0.171017     -2.231683
  H      -1.621412      0.723662     -2.419550
  C       1.615421      0.493078     -1.448131
  C       2.817766      0.107937     -2.107982
  S       0.938462     -0.527720     -3.733021
  C       2.605347     -0.444566     -3.332920
  H       1.538618      1.393272     -0.618500
  H       3.805712      0.288519     -1.709469
  H       3.342883     -0.788431     -4.042398
  H      -0.875909     -3.164558     -0.136646
  H      -0.706348     -2.400235      2.467657
  H       1.838244     -1.628849      2.928321
  O       1.362140      2.420766      0.250377
  O       0.535449      0.917428      1.676824
  C       0.937126      2.099903      1.363786
  C       0.890390      3.101679      2.480972
  H       0.851493      4.114496      2.089193
  H       1.800111      3.010029      3.077697
  H       0.047845      2.924481      3.145715
  H       3.226354     -1.925253      0.659770
  H       1.544967     -2.867438     -1.244269
39
Coordinates from ORCA-job reaction4-IEIP_ts_guess_scan_2-10_orca E -1288.394626431824
  Ir      0.576560     -0.734262      0.488498
  C       0.012355     -2.811290      0.372955
  C       0.084316     -2.365298      1.742268
  C       2.178954     -2.154070      0.808194
  C       1.282889     -2.654212     -0.209939
  C       1.450999     -2.013185      2.002725
  N      -1.042624      0.155145     -0.513428
  C      -2.321550      0.474283      0.141664
  C      -3.131954      1.534064     -0.587587
  H      -3.966839      1.834805      0.043890
  H      -3.564655      1.171888     -1.521534
  H      -2.544580      2.429031     -0.795239
  C      -3.126928     -0.802642      0.348550
  H      -2.040265      0.869798      1.119253
  H      -4.048016     -0.571214      0.881390
  H      -3.399400     -1.258074     -0.604463
  H      -2.586380     -1.537001      0.943774
  C      -0.837081      0.370029     -1.757072
  C       0.512653      0.174306     -2.235548
  H      -1.623279      0.724090     -2.417775
  C       1.613969      0.487169     -1.448903
  C       2.815936      0.107573     -2.112087
  S       0.935638     -0.509079     -3.743594
  C       2.602839     -0.429888     -3.343684
  H       1.539408      1.389760     -0.618568
  H       3.804010      0.281739     -1.711106
  H       3.339931     -0.766644     -4.057014
  H      -0.874963     -3.167144     -0.130654
  H      -0.711011     -2.397673      2.472310
  H       1.832607     -1.625778      2.936454
  O       1.367622      2.418907      0.249293
  O       0.535081      0.919353      1.676572
  C       0.940524      2.099433      1.362647
  C       0.896823      3.103333      2.477866
  H       0.860095      4.115612      2.084566
  H       1.806719      3.010523      3.074177
  H       0.054209      2.929015      3.143310
  H       3.226326     -1.928911      0.672295
  H       1.548434     -2.874303     -1.233717
39
Coordinates from ORCA-job reaction4-IEIP_ts_guess_scan_2-10_orca E -1288.394638858684
  Ir      0.575823     -0.735111      0.491973
  C       0.013002     -2.812117      0.378258
  C       0.080581     -2.364533      1.747070
  C       2.178183     -2.153585      0.818648
  C       1.285300     -2.655467     -0.201450
  C       1.446210     -2.011095      2.010710
  N      -1.041810      0.152376     -0.513507
  C      -2.321998      0.468817      0.141207
  C      -3.130749      1.533692     -0.582595
  H      -3.965808      1.831460      0.050044
  H      -3.563279      1.177544     -1.518935
  H      -2.542411      2.429336     -0.784512
  C      -3.129295     -0.808370      0.339193
  H      -2.042397      0.858529      1.121602
  H      -4.051293     -0.578777      0.871215
  H      -3.400129     -1.258180     -0.616954
  H      -2.591024     -1.546778      0.931510
  C      -0.837532      0.369503     -1.756629
  C       0.510327      0.176957     -2.238495
  H      -1.625784      0.722351     -2.415639
  C       1.612507      0.480587     -1.449418
  C       2.813935      0.106508     -2.115781
  S       0.932653     -0.487137     -3.754727
  C       2.599644     -0.418978     -3.352574
  H       1.540664      1.384492     -0.618750
  H       3.802237      0.273104     -1.712252
  H       3.335952     -0.751017     -4.068922
  H      -0.872609     -3.168931     -0.127712
  H      -0.716982     -2.395988      2.474689
  H       1.824861     -1.621878      2.944908
  O       1.374316      2.415474      0.247992
  O       0.533786      0.921929      1.676005
  C       0.944320      2.098967      1.361043
  C       0.903814      3.106097      2.473687
  H       0.869588      4.117511      2.078035
  H       1.813829      3.012347      3.069699
  H       0.061116      2.935575      3.140058
  H       3.226050     -1.928766      0.686104
  H       1.553773     -2.877258     -1.224058
39
Coordinates from ORCA-job reaction4-IEIP_ts_guess_scan_2-10_orca E -1288.394645013303
  Ir      0.574468     -0.735771      0.495592
  C       0.013346     -2.812720      0.381159
  C       0.076606     -2.364649      1.749973
  C       2.177016     -2.152873      0.827603
  C       1.287334     -2.655622     -0.194950
  C       1.441262     -2.010157      2.017365
  N      -1.040991      0.150305     -0.512665
  C      -2.321879      0.465116      0.141820
  C      -3.128314      1.534834     -0.577567
  H      -3.963111      1.831057      0.056160
  H      -3.561218      1.184034     -1.515742
  H      -2.538259      2.430328     -0.774998
  C      -3.131026     -0.812100      0.332011
  H      -2.043464      0.849702      1.124563
  H      -4.053780     -0.584005      0.863372
  H      -3.400498     -1.256945     -0.626834
  H      -2.594791     -1.554179      0.921681
  C      -0.837808      0.367048     -1.755911
  C       0.508702      0.175948     -2.239676
  H      -1.627705      0.717498     -2.414349
  C       1.611716      0.473735     -1.449362
  C       2.812793      0.106554     -2.119418
  S       0.930290     -0.481159     -3.758948
  C       2.597644     -0.408177     -3.360846
  H       1.541517      1.378161     -0.618869
  H       3.801357      0.271848     -1.716082
  H       3.333456     -0.731969     -4.081479
  H      -0.870456     -3.170168     -0.127530
  H      -0.723249     -2.395872      2.475084
  H       1.816943     -1.620069      2.952408
  O       1.379002      2.410984      0.246408
  O       0.532667      0.923275      1.676096
  C       0.946841      2.098089      1.359477
  C       0.908495      3.108392      2.469633
  H       0.875295      4.118805      2.071401
  H       1.818926      3.014993      3.065083
  H       0.066181      2.940739      3.137227
  H       3.225275     -1.927921      0.698495
  H       1.558791     -2.877899     -1.216644
39
Coordinates from ORCA-job reaction4-IEIP_ts_guess_scan_2-10_orca E -1288.394649965672
  Ir      0.574574     -0.735297      0.495753
  C       0.014809     -2.812613      0.379639
  C       0.077004     -2.365065      1.748776
  C       2.177856     -2.151622      0.827961
  C       1.289034     -2.654354     -0.195414
  C       1.441374     -2.010026      2.017334
  N      -1.041391      0.150333     -0.512340
  C      -2.322141      0.464663      0.142581
  C      -3.127560      1.536114     -0.575375
  H      -3.962007      1.832368      0.058823
  H      -3.560892      1.187050     -1.513989
  H      -2.536498      2.431166     -0.771700
  C      -3.131794     -0.812597      0.330253
  H      -2.043766      0.847449      1.126020
  H      -4.054655     -0.585200      0.861770
  H      -3.401101     -1.255662     -0.629460
  H      -2.595947     -1.555925      0.918666
  C      -0.838817      0.366290     -1.756022
  C       0.507806      0.175943     -2.239812
  H      -1.629120      0.715909     -2.414384
  C       1.610797      0.474249     -1.449722
  C       2.811880      0.105076     -2.118473
  S       0.929945     -0.480640     -3.759338
  C       2.596856     -0.411088     -3.359424
  H       1.540967      1.378106     -0.619037
  H       3.800397      0.269660     -1.714723
  H       3.332736     -0.736791     -4.079129
  H      -0.868374     -3.170431     -0.129847
  H      -0.723354     -2.397028      2.473312
  H       1.816260     -1.620246      2.952821
  O       1.378828      2.411267      0.245906
  O       0.533077      0.923871      1.676270
  C       0.946841      2.098987      1.359156
  C       0.908371      3.109396      2.469205
  H       0.873777      4.119655      2.070680
  H       1.819440      3.017087      3.063844
  H       0.066836      2.941064      3.137572
  H       3.226076     -1.926023      0.699663
  H       1.561249     -2.875906     -1.217076
39
Coordinates from ORCA-job reaction4-IEIP_ts_guess_scan_2-10_orca E -1288.394656101243
  Ir      0.574778     -0.734733      0.497043
  C       0.017176     -2.812749      0.378110
  C       0.075865     -2.365678      1.747699
  C       2.178676     -2.149852      0.832115
  C       1.292525     -2.652766     -0.193570
  C       1.439393     -2.009775      2.019843
  N      -1.041474      0.149726     -0.511179
  C      -2.322262      0.462619      0.144340
  C      -3.124929      1.539073     -0.569291
  H      -3.958744      1.834868      0.065988
  H      -3.558977      1.195144     -1.509445
  H      -2.531268      2.433195     -0.761832
  C      -3.133579     -0.814662      0.324493
  H      -2.044360      0.840023      1.129946
  H      -4.056738     -0.589234      0.856380
  H      -3.402376     -1.252376     -0.637811
  H      -2.598923     -1.561730      0.909245
  C      -0.840353      0.364158     -1.755655
  C       0.506078      0.175121     -2.240259
  H      -1.631897      0.711715     -2.413597
  C       1.609430      0.472869     -1.450474
  C       2.810250      0.103898     -2.119447
  S       0.928219     -0.479924     -3.760740
  C       2.594721     -0.412810     -3.360259
  H       1.540625      1.376148     -0.619206
  H       3.798951      0.268448     -1.716141
  H       3.330378     -0.738896     -4.080027
  H      -0.864300     -3.171369     -0.133741
  H      -0.726275     -2.398604      2.470234
  H       1.811747     -1.620290      2.956459
  O       1.380195      2.410743      0.244340
  O       0.533923      0.925300      1.676538
  C       0.947894      2.100375      1.357967
  C       0.908955      3.111829      2.466933
  H       0.871394      4.121490      2.067097
  H       1.821355      3.022338      3.059939
  H       0.068996      2.942432      3.136947
  H       3.227052     -1.923464      0.706535
  H       1.567252     -2.873411     -1.214776
39
Coordinates from ORCA-job reaction4-IEIP_ts_guess_scan_2-10_orca E -1288.394662135552
  Ir      0.575271     -0.734173      0.498833
  C       0.020036     -2.813034      0.377369
  C       0.073544     -2.365895      1.747234
  C       2.179417     -2.147885      0.839261
  C       1.297165     -2.651452     -0.189511
  C       1.435800     -2.008948      2.024399
  N      -1.041246      0.148472     -0.509644
  C      -2.322297      0.459310      0.146441
  C      -3.121334      1.542631     -0.560976
  H      -3.954552      1.837331      0.075607
  H      -3.555965      1.205867     -1.503426
  H      -2.524354      2.435714     -0.747859
  C      -3.136056     -0.817870      0.316102
  H      -2.045207      0.829111      1.135112
  H      -4.059487     -0.595144      0.848678
  H      -3.404366     -1.247924     -0.649783
  H      -2.602986     -1.570230      0.895532
  C      -0.842021      0.361578     -1.754864
  C       0.503868      0.174149     -2.241140
  H      -1.635273      0.706873     -2.411952
  C       1.607887      0.470233     -1.451742
  C       2.808170      0.102159     -2.121801
  S       0.925240     -0.477753     -3.763392
  C       2.591660     -0.411943     -3.363678
  H       1.540770      1.373016     -0.619402
  H       3.797210      0.265814     -1.718975
  H       3.326844     -0.736813     -4.084484
  H      -0.859070     -3.172823     -0.137704
  H      -0.731211     -2.399593      2.466828
  H       1.804415     -1.619356      2.962452
  O       1.383151      2.409691      0.242166
  O       0.534836      0.927179      1.676341
  C       0.949693      2.101729      1.356029
  C       0.910298      3.114780      2.463373
  H       0.869338      4.123654      2.061817
  H       1.824306      3.028757      3.054403
  H       0.072194      2.944315      3.135366
  H       3.228106     -1.920849      0.717594
  H       1.575578     -2.871488     -1.209865
39
Coordinates from ORCA-job reaction4-IEIP_ts_guess_scan_2-10_orca E -1288.394668427891
  Ir      0.576407     -0.733914      0.501031
  C       0.023707     -2.813833      0.377360
  C       0.069706     -2.365832      1.747261
  C       2.180200     -2.146076      0.850310
  C       1.303559     -2.650952     -0.182636
  C       1.430101     -2.007671      2.031502
  N      -1.040686      0.146399     -0.507549
  C      -2.322208      0.454438      0.149169
  C      -3.116235      1.547307     -0.549299
  H      -3.948964      1.839982      0.088850
  H      -3.551144      1.220636     -1.495130
  H      -2.514891      2.439149     -0.727763
  C      -3.139570     -0.822361      0.304111
  H      -2.046323      0.813385      1.142120
  H      -4.063073     -0.603399      0.838129
  H      -3.407736     -1.241255     -0.666710
  H      -2.608548     -1.582315      0.875504
  C      -0.843827      0.358597     -1.753413
  C       0.501168      0.172867     -2.242281
  H      -1.639196      0.701723     -2.409119
  C       1.606305      0.466286     -1.453569
  C       2.805646      0.100947     -2.126554
  S       0.920503     -0.474544     -3.767136
  C       2.587281     -0.409239     -3.369814
  H       1.541482      1.368454     -0.619533
  H       3.795309      0.263824     -1.724970
  H       3.321566     -0.731451     -4.092729
  H      -0.852109     -3.175273     -0.142119
  H      -0.738820     -2.400017      2.462598
  H       1.793270     -1.617410      2.971409
  O       1.387816      2.408158      0.239094
  O       0.536258      0.929584      1.675578
  C       0.952391      2.103173      1.353091
  C       0.912100      3.118623      2.458045
  H       0.866432      4.126397      2.054159
  H       1.828267      3.037604      3.046433
  H       0.076484      2.946635      3.132669
  H       3.229426     -1.918671      0.734219
  H       1.587317     -2.870764     -1.201580
39
Coordinates from ORCA-job reaction4-IEIP_ts_guess_scan_2-10_orca E -1288.394672373661
  Ir      0.577646     -0.734061      0.502299
  C       0.026800     -2.814707      0.377709
  C       0.066041     -2.365431      1.747380
  C       2.180785     -2.144943      0.860248
  C       1.309206     -2.651375     -0.176206
  C       1.424710     -2.006189      2.037739
  N      -1.040112      0.144519     -0.506010
  C      -2.321968      0.450345      0.151328
  C      -3.112179      1.550789     -0.539608
  H      -3.944852      1.841179      0.099643
  H      -3.546820      1.232286     -1.488312
  H      -2.507761      2.441955     -0.710787
  C      -3.142273     -0.826005      0.294510
  H      -2.046963      0.800386      1.147667
  H      -4.065363     -0.610167      0.830500
  H      -3.411156     -1.235400     -0.680161
  H      -2.612518     -1.592311      0.858592
  C      -0.844988      0.356960     -1.752063
  C       0.499148      0.172267     -2.243351
  H      -1.641781      0.699452     -2.406428
  C       1.605351      0.463068     -1.455337
  C       2.803723      0.099683     -2.131046
  S       0.916103     -0.470755     -3.770634
  C       2.583551     -0.405892     -3.375856
  H       1.542535      1.364525     -0.619600
  H       3.793956      0.261026     -1.730269
  H       3.316905     -0.725591     -4.100822
  H      -0.846171     -3.177613     -0.145513
  H      -0.745818     -2.399662      2.458931
  H       1.782942     -1.614809      2.979090
  O       1.392225      2.406742      0.236570
  O       0.537274      0.931289      1.674271
  C       0.954642      2.103850      1.350406
  C       0.913387      3.121464      2.453319
  H       0.863971      4.128322      2.047554
  H       1.831213      3.044650      3.039692
  H       0.079697      2.948295      3.129983
  H       3.230523     -1.917536      0.749070
  H       1.597760     -2.871418     -1.193758
39
Coordinates from ORCA-job reaction4-IEIP_ts_guess_scan_2-10_orca E -1288.394673991130
  Ir      0.578517     -0.734583      0.502446
  C       0.028630     -2.815489      0.377810
  C       0.063597     -2.365199      1.747228
  C       2.181095     -2.144709      0.866245
  C       1.312743     -2.652352     -0.172308
  C       1.421149     -2.005232      2.041287
  N      -1.039800      0.143534     -0.505387
  C      -2.321712      0.448336      0.152459
  C      -3.110295      1.552354     -0.534601
  H      -3.943297      1.840948      0.105024
  H      -3.544314      1.237844     -1.484901
  H      -2.504852      2.443580     -0.701718
  C      -3.143473     -0.827743      0.290057
  H      -2.046980      0.793978      1.150394
  H      -4.065820     -0.613540      0.827971
  H      -3.413679     -1.231988     -0.686397
  H      -2.613911     -1.597463      0.849656
  C      -0.845316      0.357032     -1.751246
  C       0.498315      0.172362     -2.243918
  H      -1.642435      0.700358     -2.404812
  C       1.605247      0.461417     -1.456392
  C       2.802913      0.099250     -2.134101
  S       0.913373     -0.468130     -3.772612
  C       2.581452     -0.403890     -3.379595
  H       1.543465      1.362208     -0.619514
  H       3.793525      0.259570     -1.733858
  H       3.314084     -0.722226     -4.105875
  H      -0.842625     -3.179254     -0.147673
  H      -0.750318     -2.399251      2.456433
  H       1.776238     -1.612781      2.983399
  O       1.394879      2.405798      0.235284
  O       0.537773      0.931862      1.673159
  C       0.955802      2.103777      1.348861
  C       0.913836      3.122726      2.450609
  H       0.862285      4.129045      2.043771
  H       1.832555      3.048409      3.035915
  H       0.081211      2.948921      3.128417
  H       3.231189     -1.917527      0.758140
  H       1.604326     -2.872762     -1.188916
39
Coordinates from ORCA-job reaction4-IEIP_ts_guess_scan_2-10_orca E -1288.394674575112
  Ir      0.578715     -0.734905      0.502162
  C       0.029510     -2.815841      0.377396
  C       0.062383     -2.365207      1.746746
  C       2.181194     -2.144465      0.868702
  C       1.314468     -2.652757     -0.170890
  C       1.419359     -2.004700      2.042536
  N      -1.039794      0.143399     -0.505380
  C      -2.321622      0.447824      0.152829
  C      -3.110196      1.552516     -0.533117
  H      -3.943546      1.839986      0.106566
  H      -3.543754      1.238991     -1.483949
  H      -2.505034      2.444181     -0.698864
  C      -3.143548     -0.828292      0.289204
  H      -2.046814      0.792463      1.151088
  H      -4.065293     -0.614707      0.828393
  H      -3.414821     -1.230908     -0.687623
  H      -2.613597     -1.599070      0.846962
  C      -0.845335      0.357872     -1.751020
  C       0.498090      0.172924     -2.244205
  H      -1.642266      0.702216     -2.404290
  C       1.605371      0.460906     -1.456829
  C       2.802670      0.098577     -2.135117
  S       0.912280     -0.466356     -3.773526
  C       2.580642     -0.403290     -3.380992
  H       1.544034      1.361219     -0.619415
  H       3.793421      0.257864     -1.734808
  H       3.312886     -0.721417     -4.107747
  H      -0.840906     -3.179999     -0.149213
  H      -0.752497     -2.399252      2.454842
  H       1.772903     -1.611606      2.984971
  O       1.396128      2.405278      0.234927
  O       0.537837      0.931913      1.672566
  C       0.956306      2.103531      1.348323
  C       0.914164      3.123038      2.449637
  H       0.861845      4.129119      2.042320
  H       1.833236      3.049635      3.034509
  H       0.081982      2.949130      3.127968
  H       3.231451     -1.917343      0.762127
  H       1.607517     -2.873278     -1.187049
