! Opt PBEh-3c
%geom Constraints
{ B 0 20 2.342857142857143 C }
{ B 24 30 1.3714285714285714 C }
    end
end
%output 
xyzfile=True 
end 
%scf 
maxiter 250 
end
%output
Print[P_Hirshfeld] = 1
end
% maxcore
4000
*xyz 1 1
Ir   0.60150754  -0.72632137   0.47343029 
C    0.07091431  -2.81907507   0.36148300 
C    0.03599726  -2.35809786   1.72580124 
C    2.19309548  -2.11978392   0.94139746 
C    1.38043327  -2.65334060  -0.12738274 
C    1.36926516  -1.97228210   2.07500954 
N   -1.04152765   0.13767640  -0.51041913 
C   -2.31686923   0.41716547   0.17023721 
C   -3.09856282   1.56541249  -0.44982849 
H   -3.92730800   1.82398626   0.20787354 
H   -3.53748416   1.30781390  -1.41470903 
H   -2.48554852   2.45906352  -0.56876792 
C   -3.14872807  -0.85842484   0.23660448 
H   -2.03530930   0.70273477   1.18480761 
H   -4.06104278  -0.67381458   0.80200437 
H   -3.43675928  -1.19485390  -0.76022695 
H   -2.61610253  -1.66821185   0.73299968 
C   -0.86908236   0.37696886  -1.75552429 
C    0.46587230   0.19347100  -2.26460863 
H   -1.67437380   0.73729182  -2.38909960 
C    1.56348086   0.35058962  -1.42564914 
C    2.76353815   0.00903140  -2.11183207 
S    0.89036810  -0.31689367  -3.83284980 
C    2.55053572  -0.36106879  -3.40442728 
H    1.54665724   1.28374035  -0.61972105 
H    3.74996003   0.09017561  -1.67892716 
H    3.28609761  -0.63679404  -4.14490533 
H   -0.76875822  -3.20166047  -0.20071485 
H   -0.80984261  -2.39267069   2.39622929 
H    1.67269066  -1.55939304   3.02659804 
O    1.44852259   2.39717520   0.19932504 
O    0.54264235   0.95436490   1.63554462 
C    0.98111097   2.11528231   1.30821729 
C    0.92943901   3.15170684   2.39333758 
H    0.89091862   4.15224447   1.97110495 
H    1.83868252   3.07973244   2.99339528 
H    0.08516550   2.99308926   3.06028746 
H    3.24806687  -1.89705893   0.88925371 
H    1.72170713  -2.88978109  -1.12460817 
*
