39
Generated by autodE on: 2023-08-14. E = -1288.400452 Ha
Ir    0.60975  -0.72569   0.46020
C     0.07978  -2.82316   0.36862
C     0.01636  -2.35730   1.72882
C     2.18934  -2.11502   0.98336
C     1.40034  -2.66161  -0.09497
C     1.33741  -1.95859   2.09764
N    -1.04485   0.13064  -0.51436
C    -2.31870   0.39253   0.17545
C    -3.10413   1.55514  -0.41335
H    -3.93221   1.79416   0.25248
H    -3.54417   1.32176  -1.38382
H    -2.49367   2.45322  -0.51012
C    -3.15044  -0.88455   0.21070
H    -2.03590   0.65329   1.19630
H    -4.06104  -0.71556   0.78380
H    -3.44157  -1.19382  -0.79398
H    -2.61609  -1.70764   0.68251
C    -0.88007   0.39494  -1.75650
C     0.45014   0.21682  -2.27236
H    -1.68803   0.77044  -2.37729
C     1.53277   0.26394  -1.39955
C     2.73851  -0.04320  -2.09409
S     0.89155  -0.16370  -3.86952
C     2.54147  -0.28779  -3.41889
H     1.55558   1.23318  -0.60813
H     3.71832  -0.02679  -1.63947
H     3.28436  -0.51330  -4.16889
H    -0.74650  -3.21337  -0.20799
H    -0.84261  -2.38834   2.38218
H     1.61990  -1.53469   3.05090
O     1.51409   2.37400   0.17738
O     0.54569   0.97157   1.61064
C     1.01322   2.11646   1.28089
C     0.95765   3.17427   2.34444
H     0.94025   4.16731   1.90352
H     1.85536   3.10076   2.96130
H     0.09952   3.03873   2.99849
H     3.24641  -1.89872   0.95625
H     1.76157  -2.91112  -1.08182
