39
Generated by autodE on: 2023-08-13. E = -1288.398214 Ha
Ir    0.59091  -0.72090   0.45710
C     0.03720  -2.80368   0.34790
C     0.11280  -2.35353   1.71603
C     2.20177  -2.13244   0.77164
C     1.30433  -2.64255  -0.24059
C     1.47810  -1.99237   1.96912
N    -1.04495   0.16714  -0.52044
C    -2.31579   0.49251   0.14578
C    -3.12596   1.55682  -0.57664
H    -3.95509   1.86052   0.06098
H    -3.56678   1.19804  -1.50816
H    -2.53547   2.44922  -0.78645
C    -3.12313  -0.78246   0.35698
H    -2.02342   0.88494   1.12114
H    -4.03668  -0.54960   0.90194
H    -3.40877  -1.23309  -0.59444
H    -2.57762  -1.52125   0.94238
C    -0.84585   0.37583  -1.76428
C     0.50409   0.15648  -2.23480
H    -1.62815   0.73455  -2.42702
C     1.60428   0.48227  -1.44905
C     2.80992   0.07485  -2.08995
S     0.93410  -0.58656  -3.70877
C     2.60049  -0.50718  -3.30056
H     1.53294   1.36818  -0.66627
H     3.79528   0.25832  -1.68683
H     3.33846  -0.87590  -3.99690
H    -0.85026  -3.16600  -0.15086
H    -0.67941  -2.38631   2.44946
H     1.86129  -1.59820   2.89939
O     1.31871   2.45580   0.25732
O     0.53446   0.91374   1.66525
C     0.91191   2.11167   1.36466
C     0.85321   3.08912   2.50496
H     0.81251   4.10976   2.13445
H     1.75818   2.98817   3.10732
H     0.00661   2.89562   3.16040
H     3.24803  -1.90436   0.63240
H     1.56712  -2.86799  -1.26386
