! Opt PBEh-3c
%geom Constraints
{ B 0 20 2.3 C }
{ B 24 30 1.3857142857142857 C }
    end
end
%output 
xyzfile=True 
end 
%scf 
maxiter 250 
end
%output
Print[P_Hirshfeld] = 1
end
% maxcore
4000
*xyz 1 1
Ir   0.60898988  -0.72370297   0.46259997 
C    0.08632357  -2.82085681   0.35161054 
C    0.02977339  -2.35989702   1.71484073 
C    2.19738174  -2.11096873   0.96045117 
C    1.40292251  -2.65186009  -0.11764715 
C    1.35406860  -1.96465056   2.08119140 
N   -1.04248564   0.13674846  -0.51151298 
C   -2.31478400   0.41079749   0.17651034 
C   -3.09454125   1.57036482  -0.42498767 
H   -3.92130630   1.82140236   0.23807956 
H   -3.53579232   1.32814088  -1.39274478 
H   -2.47911958   2.46385472  -0.53199690 
C   -3.15013236  -0.86336561   0.22589999 
H   -2.02976841   0.68084815   1.19427418 
H   -4.05846948  -0.68630858   0.80006881 
H   -3.44507979  -1.18142978  -0.77491969 
H   -2.61645849  -1.68336941   0.70408607 
C   -0.87639876   0.38275612  -1.75633993 
C    0.45634093   0.19676904  -2.26848384 
H   -1.68307173   0.74920677  -2.38442723 
C    1.54878134   0.31574525  -1.41498332 
C    2.75082518  -0.01968489  -2.10235752 
S    0.88635675  -0.27874689  -3.84410632 
C    2.54316252  -0.35279380  -3.40560829 
H    1.54483874   1.26021459  -0.62504763 
H    3.73488496   0.03959303  -1.66064405 
H    3.28081755  -0.61681145  -4.14822296 
H   -0.74284596  -3.20933498  -0.22199352 
H   -0.82548944  -2.39670418   2.37297295 
H    1.64115574  -1.54723372   3.03591772 
O    1.45738802   2.39761965   0.18653238 
O    0.54595555   0.96000270   1.62357638 
C    0.98585051   2.11953785   1.29471608 
C    0.93075383   3.15988234   2.37612702 
H    0.89167124   4.15889714   1.95033565 
H    1.83903199   3.09123610   2.97797908 
H    0.08539520   3.00241254   3.04194319 
H    3.25300857  -1.88837928   0.92598413 
H    1.75943526  -2.89074120  -1.10893352 
*
