! Opt PBEh-3c
%geom Constraints
{ B 0 20 2.428571428571429 C }
{ B 24 30 1.3285714285714287 C }
    end
end
%output 
xyzfile=True 
end 
%scf 
maxiter 250 
end
%output
Print[P_Hirshfeld] = 1
end
% maxcore
4000
*xyz 1 1
Ir   0.58583151  -0.73741570   0.50484946 
C    0.04481759  -2.82241248   0.38496923 
C    0.02492151  -2.36206927   1.75055778 
C    2.17632906  -2.14006399   0.94970743 
C    1.35019810  -2.66159766  -0.11535014 
C    1.36665994  -1.99104528   2.09139529 
N   -1.03703879   0.13150245  -0.50395584 
C   -2.31993664   0.41460939   0.16265555 
C   -3.10090011   1.55203876  -0.47792439 
H   -3.93418477   1.81737729   0.17133349 
H   -3.53379333   1.28043562  -1.44170812 
H   -2.48986697   2.44583941  -0.60568469 
C   -3.14949704  -0.86173151   0.24005210 
H   -2.04838067   0.71512816   1.17580596 
H   -4.06962595  -0.66967476   0.79013668 
H   -3.42386383  -1.21593458  -0.75450491 
H   -2.62245472  -1.66164411   0.75788699 
C   -0.85474972   0.36527985  -1.74913934 
C    0.48059914   0.19510837  -2.26129985 
H   -1.66129070   0.71487414  -2.38755694 
C    1.58937336   0.39423241  -1.44969283 
C    2.78227008   0.06260787  -2.14947245 
S    0.88865817  -0.32626311  -3.83488479 
C    2.55483828  -0.33087354  -3.43366728 
H    1.56025349   1.31337113  -0.59945448 
H    3.77447647   0.16740127  -1.73517104 
H    3.28393470  -0.60391328  -4.18156908 
H   -0.80282577  -3.19635876  -0.17103222 
H   -0.81525767  -2.39349850   2.42841483 
H    1.68220191  -1.58576214   3.04225846 
O    1.46498257   2.37725842   0.21438370 
O    0.54094815   0.94941048   1.65558504 
C    0.98982777   2.10379855   1.32398431 
C    0.94440970   3.14817534   2.40083505 
H    0.90185191   4.14538574   1.97108590 
H    1.85849712   3.08247841   2.99430338 
H    0.10526002   2.99347053   3.07497296 
H    3.23084477  -1.91787786   0.88506198 
H    1.68105138  -2.89245704  -1.11742707 
*
