39
Generated by autodE on: 2023-08-14. E = -1288.397970 Ha
Ir    0.59177  -0.72367   0.47036
C     0.03836  -2.80810   0.36946
C     0.08323  -2.35261   1.73576
C     2.19394  -2.13400   0.83519
C     1.31871  -2.65053  -0.19268
C     1.44091  -1.98570   2.01466
N    -1.04356   0.15174  -0.51780
C    -2.31913   0.45576   0.15092
C    -3.11903   1.55286  -0.53379
H    -3.94894   1.83824   0.11127
H    -3.55832   1.23285  -1.47990
H    -2.52067   2.44763  -0.70765
C    -3.13473  -0.82264   0.30327
H    -2.03461   0.80713   1.14405
H    -4.05231  -0.60810   0.84912
H    -3.41329  -1.23306  -0.66821
H    -2.59719  -1.58727   0.86205
C    -0.85431   0.37453  -1.76245
C     0.48944   0.17855  -2.24972
H    -1.64792   0.73046  -2.41303
C     1.58540   0.41896  -1.42835
C     2.79090   0.04848  -2.08976
S     0.92303  -0.43985  -3.77758
C     2.58475  -0.42218  -3.34966
H     1.53495   1.33031  -0.62774
H     3.77542   0.18006  -1.66488
H     3.32444  -0.73984  -4.06899
H    -0.83679  -3.17482  -0.14748
H    -0.72499  -2.38220   2.45143
H     1.80282  -1.58499   2.95069
O     1.38466   2.42410   0.23310
O     0.53367   0.93435   1.65666
C     0.94633   2.11186   1.34263
C     0.89722   3.11983   2.45506
H     0.86873   4.13110   2.05864
H     1.80117   3.02416   3.05985
H     0.04786   2.95148   3.11351
H     3.24429  -1.91152   0.72086
H     1.60316  -2.88418  -1.20818
