39
Generated by autodE on: 2023-08-15. E = -1288.401328 Ha
Ir    0.59978  -0.73661   0.48002
C     0.10522  -2.83862   0.37191
C    -0.07556  -2.36853   1.72147
C     2.15000  -2.09700   1.15467
C     1.46077  -2.66539   0.02442
C     1.20012  -1.94480   2.19223
N    -1.05322   0.11278  -0.50038
C    -2.33788   0.32646   0.18708
C    -3.12079   1.52260  -0.33630
H    -3.95746   1.71610   0.33330
H    -3.54756   1.35164  -1.32548
H    -2.51159   2.42612  -0.36830
C    -3.16608  -0.95179   0.12439
H    -2.07409   0.52492   1.22686
H    -4.08322  -0.82923   0.69915
H    -3.44595  -1.18883  -0.90292
H    -2.63318  -1.80674   0.53758
C    -0.89240   0.42705  -1.73278
C     0.42697   0.27536  -2.27364
H    -1.70913   0.81910  -2.33159
C     1.51596   0.18607  -1.41715
C     2.70487  -0.07440  -2.15383
S     0.84696   0.08668  -3.91365
C     2.49056  -0.14281  -3.49906
H     1.64477   1.18143  -0.56716
H     3.68824  -0.14893  -1.71294
H     3.22197  -0.29789  -4.27771
H    -0.66129  -3.25125  -0.26779
H    -0.98385  -2.40846   2.30363
H     1.39490  -1.50796   3.16161
O     1.72453   2.27839   0.17810
O     0.54394   1.00986   1.57466
C     1.11687   2.09907   1.25133
C     1.06834   3.21427   2.25226
H     0.95251   4.17249   1.75082
H     2.01669   3.24604   2.79149
H     0.27042   3.07091   2.97534
H     3.20411  -1.87507   1.21789
H     1.90408  -2.91383  -0.92879
