! Opt PBEh-3c
%geom Constraints
{ B 0 20 2.428571428571429 C }
{ B 24 30 1.342857142857143 C }
    end
end
%output 
xyzfile=True 
end 
%scf 
maxiter 250 
end
%output
Print[P_Hirshfeld] = 1
end
% maxcore
4000
*xyz 1 1
Ir   0.58619716  -0.73351410   0.49683809 
C    0.04114210  -2.81782909   0.37913922 
C    0.04629186  -2.36069287   1.74602979 
C    2.18243988  -2.13911592   0.90722979 
C    1.33697010  -2.65669538  -0.14474933 
C    1.39494962  -1.99284824   2.06428935 
N   -1.03898702   0.13829862  -0.50645015 
C   -2.32007147   0.43018694   0.15906333 
C   -3.10461581   1.55513786  -0.49844736 
H   -3.93692215   1.82967678   0.14822524 
H   -3.53918177   1.26685247  -1.45668662 
H   -2.49564512   2.44797476  -0.64209932 
C   -3.14646756  -0.84642109   0.26109335 
H   -2.04515966   0.74770083   1.16613814 
H   -4.06627069  -0.64570527   0.80855138 
H   -3.42130438  -1.21996121  -0.72622864 
H   -2.61716748  -1.63487307   0.79407708 
C   -0.85333562   0.36405467  -1.75203697 
C    0.48575428   0.18522262  -2.25484729 
H   -1.65557235   0.71267513  -2.39632829 
C    1.59150740   0.41575185  -1.44648339 
C    2.78823130   0.06754331  -2.13280909 
S    0.90074504  -0.38712505  -3.80839215 
C    2.56664732  -0.37028522  -3.40298985 
H    1.54938237   1.32972684  -0.61095528 
H    3.77856648   0.19179820  -1.71937857 
H    3.29884929  -0.66465492  -4.13969509 
H   -0.81729270  -3.18847142  -0.16237023 
H   -0.78189574  -2.39256841   2.43848432 
H    1.72841808  -1.59133399   3.01056274 
O    1.42903528   2.39511792   0.22108747 
O    0.53954027   0.94248788   1.65969107 
C    0.97191123   2.10634005   1.33251440 
C    0.92642247   3.13733966   2.42265796 
H    0.88219191   4.13964837   2.00520297 
H    1.84072774   3.06515428   3.01505557 
H    0.08810143   2.97372786   3.09588748 
H    3.23534241  -1.91553897   0.82289372 
H    1.64989455  -2.88559265  -1.15302479 
*
