39
Coordinates from ORCA-job reaction4-IEIP_ts_guess_scan_2-11_orca E -1288.393951315759
  Ir      0.573190     -0.729649      0.492345
  C       0.026037     -2.808572      0.354571
  C       0.086310     -2.369197      1.727545
  C       2.186054     -2.138369      0.809600
  C       1.299298     -2.637204     -0.218056
  C       1.449910     -2.011781      2.000748
  N      -1.046677      0.154391     -0.505331
  C      -2.327859      0.467803      0.149627
  C      -3.125164      1.550669     -0.560246
  H      -3.958719      1.847452      0.074888
  H      -3.559080      1.212378     -1.502465
  H      -2.526836      2.442617     -0.748202
  C      -3.142247     -0.808762      0.321029
  H      -2.050985      0.838687      1.137973
  H      -4.064408     -0.585551      0.855529
  H      -3.412732     -1.238719     -0.644305
  H      -2.608115     -1.561378      0.899343
  C      -0.841875      0.358527     -1.746930
  C       0.507112      0.157629     -2.216155
  H      -1.628574      0.700780     -2.413734
  C       1.611215      0.493990     -1.443332
  C       2.811030      0.107594     -2.105025
  S       0.927244     -0.552338     -3.714501
  C       2.594652     -0.457025     -3.324240
  H       1.537387      1.388227     -0.611310
  H       3.800382      0.293907     -1.712849
  H       3.330334     -0.805206     -4.033669
  H      -0.855134     -3.167864     -0.157314
  H      -0.714222     -2.410700      2.451602
  H       1.822586     -1.628749      2.939904
  O       1.370839      2.409522      0.244542
  O       0.540256      0.924669      1.676018
  C       0.943647      2.102560      1.357128
  C       0.901277      3.113593      2.466457
  H       0.842654      4.122225      2.066366
  H       1.822929      3.040398      3.047307
  H       0.072767      2.931454      3.147195
  H       3.232475     -1.904245      0.681310
  H       1.572413     -2.844573     -1.242622
39
Coordinates from ORCA-job reaction4-IEIP_ts_guess_scan_2-11_orca E -1288.394112773695
  Ir      0.576636     -0.732036      0.492743
  C       0.023502     -2.811128      0.362085
  C       0.083010     -2.368992      1.733926
  C       2.184437     -2.145232      0.818117
  C       1.297896     -2.644992     -0.209115
  C       1.446696     -2.013142      2.007543
  N      -1.046581      0.154006     -0.507708
  C      -2.326918      0.466083      0.148159
  C      -3.125450      1.547066     -0.563088
  H      -3.959898      1.843069      0.071227
  H      -3.558031      1.207207     -1.505396
  H      -2.528475      2.439840     -0.751471
  C      -3.138931     -0.811728      0.320875
  H      -2.049618      0.837987      1.135999
  H      -4.060872     -0.589771      0.856248
  H      -3.409729     -1.242522     -0.643995
  H      -2.602822     -1.563175      0.898934
  C      -0.843748      0.362775     -1.752116
  C       0.505981      0.168218     -2.227686
  H      -1.632136      0.709133     -2.414858
  C       1.608581      0.490331     -1.446984
  C       2.808929      0.104907     -2.109059
  S       0.927046     -0.528838     -3.731556
  C       2.593939     -0.445634     -3.334900
  H       1.536759      1.391126     -0.611231
  H       3.797908      0.283671     -1.712333
  H       3.330306     -0.788913     -4.045919
  H      -0.857752     -3.169919     -0.150018
  H      -0.718275     -2.407449      2.457229
  H       1.818981     -1.628308      2.946109
  O       1.374580      2.414165      0.243377
  O       0.541327      0.926028      1.677109
  C       0.947149      2.104265      1.358196
  C       0.904268      3.115051      2.467543
  H       0.845522      4.123827      2.067710
  H       1.825759      3.041794      3.048582
  H       0.075580      2.932471      3.147878
  H       3.231795     -1.914996      0.691020
  H       1.572017     -2.857056     -1.232435
39
Coordinates from ORCA-job reaction4-IEIP_ts_guess_scan_2-11_orca E -1288.394180346003
  Ir      0.575638     -0.733185      0.494408
  C       0.018180     -2.811775      0.370869
  C       0.073945     -2.366572      1.741303
  C       2.178568     -2.148449      0.830903
  C       1.294647     -2.650108     -0.197163
  C       1.436647     -2.010972      2.017333
  N      -1.043157      0.150725     -0.508232
  C      -2.323456      0.462340      0.147631
  C      -3.123887      1.541968     -0.563625
  H      -3.958620      1.837064      0.070774
  H      -3.556280      1.201097     -1.505626
  H      -2.528347      2.435585     -0.752543
  C      -3.134605     -0.815772      0.322421
  H      -2.045691      0.835258      1.134997
  H      -4.056206     -0.593894      0.858487
  H      -3.406013     -1.247645     -0.641772
  H      -2.597412     -1.566192      0.900648
  C      -0.841179      0.363494     -1.753536
  C       0.507768      0.172774     -2.235976
  H      -1.630982      0.713179     -2.412473
  C       1.610713      0.479592     -1.449667
  C       2.810618      0.104584     -2.118881
  S       0.926962     -0.500261     -3.750531
  C       2.594496     -0.424702     -3.353839
  H       1.540947      1.386976     -0.610610
  H       3.799977      0.276663     -1.720095
  H       3.330113     -0.755611     -4.071433
  H      -0.862025     -3.170591     -0.142970
  H      -0.729476     -2.401868      2.462295
  H       1.806450     -1.623316      2.955716
  O       1.383624      2.412086      0.242422
  O       0.536301      0.926032      1.675106
  C       0.949332      2.101709      1.356819
  C       0.907249      3.113539      2.464616
  H       0.854469      4.122268      2.063825
  H       1.826318      3.036493      3.049012
  H       0.075213      2.934923      3.141823
  H       3.226958     -1.921332      0.706975
  H       1.571574     -2.866916     -1.218670
39
Coordinates from ORCA-job reaction4-IEIP_ts_guess_scan_2-11_orca E -1288.394206691065
  Ir      0.576366     -0.735386      0.497057
  C       0.017261     -2.813819      0.379210
  C       0.070344     -2.365576      1.748446
  C       2.177290     -2.151394      0.841510
  C       1.295148     -2.655075     -0.186995
  C       1.432481     -2.009806      2.025836
  N      -1.042055      0.147870     -0.509763
  C      -2.323504      0.457711      0.145591
  C      -3.124057      1.538988     -0.563037
  H      -3.959355      1.831775      0.071671
  H      -3.555780      1.200638     -1.506246
  H      -2.528989      2.433560     -0.748961
  C      -3.135842     -0.820238      0.316763
  H      -2.046915      0.828415      1.134126
  H      -4.058058     -0.598717      0.851918
  H      -3.406196     -1.249982     -0.648683
  H      -2.600224     -1.572148      0.894272
  C      -0.841011      0.365156     -1.754341
  C       0.506189      0.178323     -2.241027
  H      -1.632417      0.716034     -2.410594
  C       1.609443      0.473149     -1.450718
  C       2.808932      0.103379     -2.122941
  S       0.924796     -0.470862     -3.765418
  C       2.592140     -0.408295     -3.365317
  H       1.542261      1.383392     -0.610491
  H       3.798367      0.265450     -1.720228
  H       3.327229     -0.732876     -4.086322
  H      -0.862125     -3.173237     -0.135630
  H      -0.734537     -2.398384      2.467892
  H       1.800597     -1.619590      2.963838
  O       1.389899      2.410168      0.241437
  O       0.536062      0.927804      1.674534
  C       0.953072      2.100929      1.355667
  C       0.913985      3.114902      2.461366
  H       0.864492      4.123137      2.058997
  H       1.832655      3.035872      3.046153
  H       0.081152      2.939813      3.138546
  H       3.226350     -1.926221      0.719766
  H       1.573923     -2.875666     -1.207144
39
Coordinates from ORCA-job reaction4-IEIP_ts_guess_scan_2-11_orca E -1288.394219785232
  Ir      0.575562     -0.738126      0.501708
  C       0.015163     -2.815953      0.388149
  C       0.064196     -2.364793      1.756329
  C       2.174468     -2.154580      0.855152
  C       1.295116     -2.660042     -0.174856
  C       1.425604     -2.009046      2.036624
  N      -1.040207      0.144619     -0.510319
  C      -2.323035      0.452529      0.144190
  C      -3.122892      1.536752     -0.560843
  H      -3.958529      1.827032      0.074542
  H      -3.554262      1.202279     -1.505596
  H      -2.527753      2.432099     -0.742821
  C      -3.136916     -0.825256      0.309594
  H      -2.048103      0.819786      1.134482
  H      -4.060141     -0.604419      0.843254
  H      -3.405473     -1.251751     -0.657800
  H      -2.603574     -1.579577      0.886044
  C      -0.839961      0.365079     -1.754066
  C       0.504876      0.180900     -2.244443
  H      -1.633284      0.715232     -2.408479
  C       1.609167      0.462573     -1.450628
  C       2.808040      0.104634     -2.129387
  S       0.921941     -0.448828     -3.776779
  C       2.589885     -0.384909     -3.380666
  H       1.544638      1.374875     -0.610163
  H       3.797846      0.260594     -1.725300
  H       3.324128     -0.695871     -4.108507
  H      -0.862850     -3.175773     -0.128781
  H      -0.743013     -2.394865      2.473259
  H       1.791116     -1.616333      2.974623
  O       1.397679      2.404095      0.239763
  O       0.535454      0.929086      1.674274
  C       0.957668      2.098662      1.353786
  C       0.921771      3.116853      2.455910
  H       0.876267      4.123923      2.050279
  H       1.839809      3.036301      3.041505
  H       0.087905      2.947024      3.133227
  H       3.224323     -1.931330      0.736850
  H       1.576739     -2.884285     -1.193372
39
Coordinates from ORCA-job reaction4-IEIP_ts_guess_scan_2-11_orca E -1288.394226042355
  Ir      0.574266     -0.737874      0.503162
  C       0.015449     -2.815649      0.388939
  C       0.061969     -2.364211      1.757113
  C       2.173729     -2.153070      0.859364
  C       1.296316     -2.659172     -0.172036
  C       1.422765     -2.007619      2.039536
  N      -1.039693      0.143626     -0.510051
  C      -2.322870      0.449961      0.144754
  C      -3.122355      1.536406     -0.557410
  H      -3.957659      1.825304      0.079049
  H      -3.554254      1.204683     -1.502888
  H      -2.526931      2.431991     -0.737217
  C      -3.136982     -0.828181      0.306065
  H      -2.048518      0.814549      1.136196
  H      -4.060729     -0.608563      0.839321
  H      -3.404599     -1.252204     -0.662677
  H      -2.604395     -1.584174      0.881138
  C      -0.840045      0.364847     -1.753658
  C       0.503944      0.182512     -2.245281
  H      -1.634409      0.714001     -2.407454
  C       1.608966      0.459331     -1.450739
  C       2.807433      0.103141     -2.130488
  S       0.921056     -0.434528     -3.782660
  C       2.588381     -0.382124     -3.383495
  H       1.546185      1.371082     -0.610027
  H       3.797422      0.254005     -1.724976
  H       3.322046     -0.692842     -4.112030
  H      -0.861431     -3.175997     -0.129548
  H      -0.746537     -2.394224      2.472587
  H       1.786546     -1.614314      2.977965
  O       1.401493      2.401298      0.239081
  O       0.534379      0.930228      1.673624
  C       0.959284      2.098363      1.352650
  C       0.924126      3.118479      2.453368
  H       0.880384      4.124986      2.046195
  H       1.841645      3.037429      3.039708
  H       0.089593      2.950966      3.130459
  H       3.223730     -1.929479      0.743072
  H       1.579670     -2.883775     -1.189971
39
Coordinates from ORCA-job reaction4-IEIP_ts_guess_scan_2-11_orca E -1288.394230816618
  Ir      0.574347     -0.737585      0.503458
  C       0.016682     -2.815648      0.387387
  C       0.062248     -2.364744      1.755887
  C       2.174414     -2.152246      0.859650
  C       1.297770     -2.658120     -0.172581
  C       1.422838     -2.007876      2.039476
  N      -1.039947      0.143868     -0.509638
  C      -2.322938      0.449998      0.145542
  C      -3.121513      1.537716     -0.555700
  H      -3.956474      1.826883      0.081115
  H      -3.553802      1.207152     -1.501395
  H      -2.525214      2.432818     -0.734900
  C      -3.137521     -0.828059      0.305087
  H      -2.048563      0.813320      1.137424
  H      -4.061419     -0.608813      0.838282
  H      -3.404919     -1.250908     -0.664226
  H      -2.605373     -1.584900      0.879407
  C      -0.840785      0.364057     -1.753704
  C       0.503299      0.182051     -2.245116
  H      -1.635469      0.712175     -2.407631
  C       1.608376      0.459450     -1.450902
  C       2.806813      0.102022     -2.129850
  S       0.920680     -0.437238     -3.781756
  C       2.587816     -0.383815     -3.382747
  H       1.545944      1.370416     -0.609965
  H       3.796802      0.253309     -1.724496
  H       3.321564     -0.694888     -4.111050
  H      -0.859644     -3.176236     -0.131852
  H      -0.746730     -2.395413      2.470817
  H       1.785927     -1.615020      2.978357
  O       1.401239      2.401012      0.238679
  O       0.534733      0.930438      1.674019
  C       0.959129      2.098915      1.352408
  C       0.923480      3.119232      2.452936
  H       0.878678      4.125549      2.045388
  H       1.841309      3.039162      3.038915
  H       0.089378      2.951234      3.130403
  H       3.224377     -1.928083      0.744104
  H       1.581838     -2.881995     -1.190489
39
Coordinates from ORCA-job reaction4-IEIP_ts_guess_scan_2-11_orca E -1288.394238861103
  Ir      0.574473     -0.737411      0.505289
  C       0.018802     -2.816079      0.386044
  C       0.060433     -2.365557      1.754969
  C       2.174871     -2.151194      0.864844
  C       1.301218     -2.657007     -0.170049
  C       1.420170     -2.008201      2.042711
  N      -1.039637      0.143464     -0.508367
  C      -2.322634      0.448221      0.147435
  C      -3.118726      1.540385     -0.549843
  H      -3.953017      1.829206      0.088044
  H      -3.551723      1.214334     -1.496756
  H      -2.520120      2.434549     -0.725830
  C      -3.138776     -0.829675      0.300109
  H      -2.048728      0.806680      1.141165
  H      -4.063232     -0.612057      0.833068
  H      -3.405259     -1.247902     -0.671455
  H      -2.608087     -1.589725      0.871518
  C      -0.841986      0.362113     -1.753293
  C       0.501665      0.181521     -2.245626
  H      -1.638102      0.707687     -2.406796
  C       1.607362      0.456619     -1.451510
  C       2.805339      0.100696     -2.131488
  S       0.918654     -0.436281     -3.783372
  C       2.585506     -0.382611     -3.385476
  H       1.546585      1.366489     -0.609480
  H       3.795633      0.251834     -1.726858
  H       3.318942     -0.691609     -4.114989
  H      -0.855634     -3.177359     -0.135872
  H      -0.750591     -2.396986      2.467567
  H       1.780477     -1.615761      2.982830
  O       1.403566      2.399011      0.237106
  O       0.535545      0.931578      1.674704
  C       0.960444      2.099831      1.351119
  C       0.923634      3.121814      2.449968
  H       0.877058      4.127308      2.040533
  H       1.841899      3.044166      3.035561
  H       0.090111      2.953715      3.128061
  H       3.225040     -1.926395      0.752457
  H       1.588192     -2.880223     -1.187300
39
Coordinates from ORCA-job reaction4-IEIP_ts_guess_scan_2-11_orca E -1288.394243912793
  Ir      0.574836     -0.737315      0.506901
  C       0.020425     -2.816476      0.386110
  C       0.057975     -2.365649      1.755093
  C       2.174914     -2.150466      0.871151
  C       1.304324     -2.656692     -0.166136
  C       1.416746     -2.007848      2.046818
  N      -1.039043      0.142552     -0.507284
  C      -2.322268      0.445790      0.148900
  C      -3.116250      1.542231     -0.544193
  H      -3.950171      1.830159      0.094581
  H      -3.549562      1.220709     -1.492490
  H      -2.515723      2.435793     -0.716571
  C      -3.139935     -0.831939      0.294769
  H      -2.048948      0.799323      1.144525
  H      -4.064742     -0.616045      0.827834
  H      -3.405829     -1.245331     -0.679029
  H      -2.610439     -1.595262      0.862937
  C      -0.842787      0.360681     -1.752688
  C       0.500212      0.181567     -2.246632
  H      -1.640311      0.704626     -2.405341
  C       1.606604      0.453453     -1.452476
  C       2.803994      0.099258     -2.133990
  S       0.916298     -0.431151     -3.786815
  C       2.583107     -0.379206     -3.389805
  H       1.547683      1.362700     -0.608998
  H       3.794636      0.248575     -1.729559
  H       3.316064     -0.685816     -4.120813
  H      -0.852191     -3.178498     -0.138317
  H      -0.755137     -2.397307      2.465303
  H       1.774143     -1.615243      2.987982
  O       1.407016      2.397180      0.235591
  O       0.536151      0.932789      1.674657
  C       0.962195      2.100352      1.349590
  C       0.924527      3.124000      2.446734
  H       0.876981      4.128786      2.035633
  H       1.842998      3.048174      3.032231
  H       0.091227      2.956171      3.125131
  H       3.225378     -1.925500      0.761951
  H       1.594273     -2.879936     -1.182542
39
Coordinates from ORCA-job reaction4-IEIP_ts_guess_scan_2-11_orca E -1288.394250201880
  Ir      0.575991     -0.737454      0.509262
  C       0.023198     -2.817428      0.386853
  C       0.053326     -2.365505      1.755662
  C       2.174935     -2.149746      0.882921
  C       1.309889     -2.657090     -0.158446
  C       1.410268     -2.006991      2.054433
  N      -1.037961      0.140577     -0.505417
  C      -2.321670      0.441134      0.151343
  C      -3.111827      1.545391     -0.533855
  H      -3.945387      1.831262      0.106294
  H      -3.545266      1.232300     -1.484878
  H      -2.507971      2.438027     -0.699130
  C      -3.142254     -0.836134      0.284757
  H      -2.049419      0.785439      1.150447
  H      -4.067289     -0.623478      0.818736
  H      -3.407780     -1.240160     -0.693072
  H      -2.614594     -1.605686      0.846230
  C      -0.843939      0.358579     -1.751329
  C       0.497893      0.181614     -2.248321
  H      -1.643660      0.700659     -2.402307
  C       1.605570      0.448220     -1.454352
  C       2.801826      0.097864     -2.139438
  S       0.911694     -0.421973     -3.792838
  C       2.578766     -0.373156     -3.397819
  H       1.549701      1.356374     -0.608073
  H       3.793175      0.244464     -1.735779
  H       3.310710     -0.675747     -4.131511
  H      -0.846222     -3.180795     -0.141912
  H      -0.763531     -2.397211      2.461562
  H       1.762307     -1.613659      2.997323
  O       1.413461      2.394417      0.232862
  O       0.537551      0.934927      1.674009
  C       0.965483      2.101157      1.346677
  C       0.926142      3.127756      2.440823
  H       0.876768      4.131346      2.026973
  H       1.845017      3.055319      3.026107
  H       0.093266      2.960197      3.119758
  H       3.225979     -1.924883      0.779404
  H       1.605224     -2.880739     -1.173219
39
Coordinates from ORCA-job reaction4-IEIP_ts_guess_scan_2-11_orca E -1288.394252848901
  Ir      0.577122     -0.737737      0.510337
  C       0.025472     -2.818210      0.387419
  C       0.049662     -2.365119      1.755917
  C       2.175027     -2.149230      0.891972
  C       1.314444     -2.657846     -0.152437
  C       1.405041     -2.005848      2.060069
  N      -1.037267      0.138846     -0.504217
  C      -2.321243      0.437549      0.153091
  C      -3.108664      1.547577     -0.525972
  H      -3.942204      1.831444      0.115074
  H      -3.541865      1.240879     -1.479160
  H      -2.502605      2.439744     -0.685535
  C      -3.144042     -0.839264      0.277407
  H      -2.049627      0.774861      1.154730
  H      -4.068677     -0.629142      0.813066
  H      -3.410284     -1.235771     -0.703308
  H      -2.617245     -1.613730      0.832942
  C      -0.844680      0.357511     -1.750208
  C       0.496306      0.181715     -2.249576
  H      -1.645638      0.699367     -2.399830
  C       1.604946      0.444919     -1.456015
  C       2.800298      0.096853     -2.143766
  S       0.907968     -0.415140     -3.797191
  C       2.575541     -0.368857     -3.403811
  H       1.551174      1.352024     -0.607438
  H       3.792164      0.241132     -1.740557
  H       3.306634     -0.668947     -4.139367
  H      -0.841481     -3.182671     -0.144625
  H      -0.770097     -2.396727      2.458447
  H       1.752734     -1.611506      3.004165
  O       1.418551      2.392657      0.230869
  O       0.538506      0.936375      1.672772
  C       0.967914      2.101487      1.344317
  C       0.927257      3.130265      2.436350
  H       0.876618      4.133031      2.020645
  H       1.846400      3.060322      3.021523
  H       0.094656      2.962878      3.115653
  H       3.226526     -1.924600      0.792865
  H       1.614030     -2.881899     -1.165876
39
Coordinates from ORCA-job reaction4-IEIP_ts_guess_scan_2-11_orca E -1288.394253381651
  Ir      0.577889     -0.738123      0.510412
  C       0.027238     -2.818812      0.387288
  C       0.047420     -2.364960      1.755577
  C       2.175285     -2.148815      0.897419
  C       1.317764     -2.658507     -0.148966
  C       1.401680     -2.004904      2.063186
  N      -1.037145      0.137801     -0.503716
  C      -2.321133      0.435575      0.154104
  C      -3.107092      1.548821     -0.521344
  H      -3.940876      1.831066      0.120095
  H      -3.539831      1.245859     -1.475919
  H      -2.500082      2.440975     -0.677245
  C      -3.145194     -0.840939      0.273403
  H      -2.049711      0.768900      1.157117
  H      -4.069041     -0.632403      0.811032
  H      -3.412833     -1.232643     -0.708860
  H      -2.618418     -1.618506      0.824610
  C      -0.845125      0.357440     -1.749532
  C       0.495449      0.181747     -2.250162
  H      -1.646340      0.700167     -2.398414
  C       1.604666      0.443564     -1.457068
  C       2.799450      0.096547     -2.146442
  S       0.905548     -0.412382     -3.799087
  C       2.573635     -0.367322     -3.406897
  H       1.551845      1.349731     -0.607101
  H       3.791608      0.239873     -1.743616
  H       3.304124     -0.666498     -4.143411
  H      -0.838088     -3.184006     -0.146900
  H      -0.774212     -2.396583      2.455915
  H       1.746409     -1.609638      3.007997
  O       1.421588      2.391797      0.229795
  O       0.538991      0.937077      1.671608
  C       0.969277      2.101521      1.342909
  C       0.927944      3.131542      2.433839
  H       0.876502      4.133843      2.017123
  H       1.847325      3.063082      3.018821
  H       0.095623      2.964263      3.113519
  H       3.227067     -1.924318      0.801206
  H       1.620164     -2.882642     -1.161554
39
Coordinates from ORCA-job reaction4-IEIP_ts_guess_scan_2-11_orca E -1288.394253279448
  Ir      0.578015     -0.738320      0.510160
  C       0.028317     -2.819082      0.386675
  C       0.046363     -2.365040      1.754942
  C       2.175471     -2.148247      0.899743
  C       1.319636     -2.658583     -0.147710
  C       1.399990     -2.004289      2.064308
  N      -1.037326      0.137505     -0.503702
  C      -2.321203      0.434938      0.154497
  C      -3.106886      1.549144     -0.519641
  H      -3.940931      1.830386      0.121908
  H      -3.539273      1.247505     -1.474787
  H      -2.499893      2.441566     -0.674022
  C      -3.145555     -0.841542      0.272223
  H      -2.049717      0.767005      1.157906
  H      -4.068747     -0.633735      0.811256
  H      -3.414341     -1.231273     -0.710507
  H      -2.618394     -1.620364      0.821279
  C      -0.845393      0.357839     -1.749357
  C       0.495053      0.181890     -2.250392
  H      -1.646430      0.701454     -2.398002
  C       1.604500      0.443273     -1.457529
  C       2.799038      0.096112     -2.147296
  S       0.904505     -0.411762     -3.799572
  C       2.572842     -0.367272     -3.407823
  H       1.551965      1.348879     -0.607048
  H       3.791272      0.238958     -1.744487
  H       3.303027     -0.666425     -4.144639
  H      -0.836119     -3.184683     -0.148680
  H      -0.776212     -2.396852      2.454162
  H       1.743144     -1.608472      3.009471
  O       1.422978      2.391424      0.229450
  O       0.538976      0.937319      1.670918
  C       0.969904      2.101451      1.342376
  C       0.928554      3.131915      2.432967
  H       0.876856      4.134027      2.015838
  H       1.848094      3.063908      3.017753
  H       0.096436      2.964824      3.112947
  H       3.227367     -1.923664      0.805067
  H       1.623487     -2.882526     -1.159908
