39
Generated by autodE on: 2023-08-13. E = -1288.396988 Ha
Ir    0.58346  -0.72637   0.46888
C     0.02788  -2.80646   0.34972
C     0.10898  -2.36041   1.71948
C     2.19471  -2.14014   0.76975
C     1.29299  -2.64394  -0.24202
C     1.47670  -2.00453   1.97055
N    -1.04337   0.16755  -0.51695
C    -2.31616   0.49758   0.14367
C    -3.12885   1.55027  -0.59271
H    -3.96003   1.85846   0.04003
H    -3.56681   1.17863  -1.52055
H    -2.54161   2.44247  -0.81237
C    -3.12071  -0.77640   0.37041
H    -2.02601   0.90337   1.11431
H    -4.03619  -0.53834   0.90986
H    -3.40309  -1.24067  -0.57543
H    -2.57537  -1.50584   0.96761
C    -0.83824   0.37388  -1.76017
C     0.51290   0.15580  -2.22942
H    -1.61882   0.73077  -2.42605
C     1.61673   0.50884  -1.46199
C     2.81992   0.10034  -2.10590
S     0.93710  -0.60729  -3.69707
C     2.60566  -0.50493  -3.30446
H     1.53694   1.38543  -0.66596
H     3.80712   0.29909  -1.71468
H     3.34146  -0.87940  -4.00005
H    -0.86207  -3.16516  -0.14721
H    -0.68084  -2.39494   2.45550
H     1.86401  -1.61578   2.90138
O     1.31501   2.44832   0.26238
O     0.53597   0.90771   1.67532
C     0.91135   2.10571   1.37139
C     0.85436   3.08509   2.50989
H     0.81039   4.10486   2.13734
H     1.76157   2.98734   3.10939
H     0.01037   2.89123   3.16857
H     3.24000  -1.91006   0.62606
H     1.55196  -2.86289  -1.26775
