! Opt PBEh-3c
%geom Constraints
{ B 0 20 2.1285714285714286 C }
{ B 24 30 1.3857142857142857 C }
    end
end
%output 
xyzfile=True 
end 
%scf 
maxiter 250 
end
%output
Print[P_Hirshfeld] = 1
end
% maxcore
4000
*xyz 1 1
Ir   0.61440176  -0.72534433   0.43358213 
C    0.12892803  -2.83763261   0.34323349 
C   -0.05529193  -2.37597875   1.69458029 
C    2.16652401  -2.07725794   1.12450276 
C    1.48494621  -2.65801575  -0.00245231 
C    1.21064144  -1.93471903   2.16238352 
N   -1.06200888   0.12444923  -0.51019437 
C   -2.33554741   0.33723363   0.19483951 
C   -3.13030356   1.52855218  -0.32084045 
H   -3.96070016   1.71760771   0.35769669 
H   -3.56683617   1.35338164  -1.30507461 
H   -2.52696891   2.43575741  -0.35996311 
C   -3.15959870  -0.94475495   0.14627015 
H   -2.05575524   0.53747297   1.23009846 
H   -4.06726788  -0.82461333   0.73631039 
H   -3.45566098  -1.18330128  -0.87608397 
H   -2.61629776  -1.79700042   0.55109486 
C   -0.90769137   0.45553644  -1.73884853 
C    0.41236868   0.28065505  -2.26896463 
H   -1.71715350   0.87153755  -2.33033933 
C    1.46949664   0.12141074  -1.37388038 
C    2.67499554  -0.14607853  -2.09130710 
S    0.87432504   0.13149404  -3.89480829 
C    2.50002627  -0.16361970  -3.44152167 
H    1.62441037   1.13758144  -0.61235998 
H    3.64276981  -0.25944888  -1.62467055 
H    3.24907410  -0.31329737  -4.20418951 
H   -0.63289228  -3.26035985  -0.29547488 
H   -0.96455176  -2.42053088   2.27453229 
H    1.40007159  -1.49300978   3.13059152 
O    1.71889712   2.30556569   0.15372424 
O    0.55177098   1.01457763   1.54028087 
C    1.11482667   2.11371694   1.22257414 
C    1.05031798   3.21913287   2.23562966 
H    0.94007969   4.18221578   1.74248622 
H    1.99069942   3.24607092   2.78876696 
H    0.24282241   3.06786408   2.94653879 
H    3.22007814  -1.85502590   1.19455690 
H    1.93142454  -2.91263477  -0.95256011 
*
