39
Coordinates from ORCA-job reaction4-IEIP_ts_guess_scan_3-1_orca E -1288.399166073993
  Ir      0.592913     -0.715393      0.427335
  C       0.040439     -2.798294      0.314184
  C       0.142285     -2.350182      1.682679
  C       2.211649     -2.126203      0.700436
  C       1.295833     -2.633943     -0.296529
  C       1.513105     -1.992235      1.912647
  N      -1.049886      0.187004     -0.525744
  C      -2.314199      0.528934      0.143292
  C      -3.141459      1.557862     -0.609408
  H      -3.970123      1.873081      0.023094
  H      -3.583167      1.160627     -1.524863
  H      -2.564311      2.450341     -0.853544
  C      -3.108726     -0.742875      0.413194
  H      -2.011729      0.959687      1.099288
  H      -4.016461     -0.495542      0.961413
  H      -3.404375     -1.230830     -0.516553
  H      -2.550608     -1.455182      1.019186
  C      -0.839236      0.390707     -1.765157
  C       0.516959      0.139432     -2.208752
  H      -1.604366      0.762208     -2.440771
  C       1.617164      0.522619     -1.450481
  C       2.824196      0.074978     -2.062929
  S       0.948138     -0.703962     -3.629394
  C       2.615713     -0.591113     -3.228744
  H       1.532373      1.389442     -0.688172
  H       3.808657      0.289278     -1.672986
  H       3.354691     -1.007083     -3.896870
  H      -0.856550     -3.160061     -0.167612
  H      -0.635453     -2.385739      2.431521
  H       1.913631     -1.601090      2.836882
  O       1.253164      2.491989      0.267746
  O       0.544623      0.895812      1.657568
  C       0.880743      2.114430      1.371862
  C       0.810388      3.060249      2.539335
  H       0.743964      4.088661      2.194760
  H       1.721968      2.964625      3.132438
  H      -0.026330      2.832807      3.196798
  H       3.253673     -1.892665      0.539403
  H       1.540080     -2.853191     -1.325814
39
Coordinates from ORCA-job reaction4-IEIP_ts_guess_scan_3-1_orca E -1288.398370584784
  Ir      0.595828     -0.705393      0.420890
  C       0.054488     -2.792250      0.299388
  C       0.147531     -2.349727      1.670104
  C       2.220224     -2.110104      0.698446
  C       1.311907     -2.619310     -0.304592
  C       1.514902     -1.983991      1.907561
  N      -1.057556      0.189929     -0.532447
  C      -2.319147      0.535259      0.138809
  C      -3.151668      1.553848     -0.622031
  H      -3.978895      1.873949      0.009898
  H      -3.595456      1.145500     -1.531606
  H      -2.577583      2.444992     -0.878011
  C      -3.108639     -0.735961      0.425418
  H      -2.013507      0.976829      1.088844
  H      -4.014536     -0.485541      0.975255
  H      -3.407140     -1.234304     -0.497876
  H      -2.545509     -1.440329      1.036102
  C      -0.854604      0.380030     -1.776472
  C       0.501572      0.129368     -2.220419
  H      -1.624280      0.739812     -2.453280
  C       1.597736      0.535219     -1.467236
  C       2.807523      0.077438     -2.068112
  S       0.938013     -0.747572     -3.618482
  C       2.603962     -0.621492     -3.215159
  H       1.510895      1.447631     -0.751925
  H       3.790682      0.311134     -1.686220
  H       3.346009     -1.049268     -3.872230
  H      -0.838114     -3.157270     -0.188047
  H      -0.633246     -2.393267      2.415286
  H       1.908852     -1.594116      2.835143
  O       1.378479      2.462792      0.324765
  O       0.525307      0.898388      1.663263
  C       0.920078      2.103648      1.403055
  C       0.810973      3.053390      2.564238
  H       0.805124      4.083059      2.217006
  H       1.678666      2.924710      3.214164
  H      -0.073868      2.858319      3.166691
  H       3.261952     -1.871452      0.543683
  H       1.562414     -2.834709     -1.333122
39
Coordinates from ORCA-job reaction4-IEIP_ts_guess_scan_3-1_orca E -1288.399266894138
  Ir      0.599902     -0.720967      0.429993
  C       0.038849     -2.804419      0.326454
  C       0.137212     -2.353043      1.693801
  C       2.211221     -2.138801      0.717971
  C       1.297407     -2.647561     -0.280239
  C       1.507809     -1.997146      1.926742
  N      -1.046875      0.185358     -0.526239
  C      -2.309802      0.527073      0.143491
  C      -3.134523      1.557827     -0.609413
  H      -3.963810      1.873652      0.021960
  H      -3.575009      1.161977     -1.526110
  H      -2.555743      2.449718     -0.851902
  C      -3.104999     -0.744729      0.410887
  H      -2.006751      0.955854      1.100189
  H      -4.012377     -0.497823      0.959858
  H      -3.401240     -1.230521     -0.519795
  H      -2.546910     -1.458564      1.015209
  C      -0.838835      0.397028     -1.767404
  C       0.516778      0.151245     -2.220468
  H      -1.606453      0.774648     -2.436791
  C       1.618910      0.514045     -1.452645
  C       2.823256      0.072763     -2.077540
  S       0.942751     -0.673075     -3.653231
  C       2.611032     -0.574898     -3.252193
  H       1.546950      1.401455     -0.701112
  H       3.809426      0.282322     -1.689469
  H       3.347608     -0.979994     -3.929427
  H      -0.857464     -3.165146     -0.157349
  H      -0.642951     -2.384443      2.440182
  H       1.906140     -1.603797      2.850971
  O       1.243500      2.486700      0.267139
  O       0.542393      0.895022      1.662140
  C       0.876101      2.112448      1.374909
  C       0.804603      3.062883      2.538336
  H       0.734328      4.089758      2.189880
  H       1.717289      2.972509      3.130481
  H      -0.030451      2.835174      3.197648
  H       3.255059     -1.911444      0.560886
  H       1.545038     -2.873898     -1.307061
39
Coordinates from ORCA-job reaction4-IEIP_ts_guess_scan_3-1_orca E -1288.398686836193
  Ir      0.586327     -0.718469      0.437254
  C       0.026529     -2.801637      0.353756
  C       0.121249     -2.336019      1.716213
  C       2.197398     -2.131077      0.742965
  C       1.286359     -2.650592     -0.251858
  C       1.490849     -1.977268      1.948560
  N      -1.052814      0.172951     -0.531526
  C      -2.319941      0.509724      0.134297
  C      -3.149033      1.536733     -0.619130
  H      -3.980688      1.848080      0.011382
  H      -3.586685      1.139154     -1.536381
  H      -2.574496      2.431677     -0.860395
  C      -3.110498     -0.765291      0.400619
  H      -2.021418      0.940055      1.091705
  H      -4.020248     -0.522087      0.947380
  H      -3.402412     -1.252860     -0.530492
  H      -2.550757     -1.476338      1.006532
  C      -0.844361      0.384864     -1.771707
  C       0.510989      0.151196     -2.230772
  H      -1.613902      0.762188     -2.438752
  C       1.613696      0.493585     -1.455732
  C       2.820195      0.089876     -2.100559
  S       0.938579     -0.613021     -3.695433
  C       2.608847     -0.506738     -3.302407
  H       1.530131      1.325280     -0.648865
  H       3.805649      0.284573     -1.702866
  H       3.345833     -0.879656     -3.997561
  H      -0.868577     -3.167380     -0.128505
  H      -0.660934     -2.359183      2.460760
  H       1.886691     -1.573770      2.869478
  O       1.405998      2.459990      0.302119
  O       0.529367      0.909463      1.649231
  C       0.938535      2.108456      1.379737
  C       0.838027      3.065933      2.535106
  H       0.845012      4.093617      2.182164
  H       1.702564      2.930717      3.187905
  H      -0.050562      2.884385      3.136315
  H       3.241552     -1.904654      0.586034
  H       1.536323     -2.887267     -1.275829
39
Coordinates from ORCA-job reaction4-IEIP_ts_guess_scan_3-1_orca E -1288.399312518309
  Ir      0.594135     -0.715325      0.431539
  C       0.038028     -2.798876      0.329840
  C       0.132105     -2.345594      1.696457
  C       2.207778     -2.127929      0.724603
  C       1.297522     -2.640006     -0.274827
  C       1.501037     -1.986138      1.931637
  N      -1.047448      0.183329     -0.527101
  C      -2.313048      0.520239      0.141620
  C      -3.141245      1.551218     -0.607392
  H      -3.971461      1.862073      0.025253
  H      -3.580876      1.157446     -1.525338
  H      -2.565444      2.445914     -0.846568
  C      -3.105895     -0.753990      0.404921
  H      -2.012370      0.947016      1.099974
  H      -4.014470     -0.510622      0.953559
  H      -3.399969     -1.238027     -0.527355
  H      -2.546901     -1.468071      1.007901
  C      -0.839404      0.395278     -1.767539
  C       0.514738      0.152573     -2.224036
  H      -1.608694      0.769838     -2.436429
  C       1.618343      0.508275     -1.455723
  C       2.821761      0.067843     -2.081739
  S       0.939271     -0.652926     -3.667113
  C       2.607959     -0.565139     -3.264290
  H       1.547936      1.383120     -0.690712
  H       3.808086      0.264833     -1.687406
  H       3.343204     -0.968867     -3.943825
  H      -0.856482     -3.161884     -0.155577
  H      -0.649850     -2.377064      2.440920
  H       1.896315     -1.590191      2.856059
  O       1.294317      2.480541      0.278149
  O       0.533017      0.900936      1.657515
  C       0.893075      2.112304      1.376548
  C       0.815739      3.063684      2.538716
  H       0.772586      4.091800      2.189640
  H       1.713916      2.955443      3.149769
  H      -0.037234      2.851788      3.180198
  H       3.251560     -1.898472      0.569759
  H       1.547735     -2.867180     -1.300867
39
Coordinates from ORCA-job reaction4-IEIP_ts_guess_scan_3-1_orca E -1288.399318426581
  Ir      0.597232     -0.719823      0.433990
  C       0.036296     -2.802682      0.335144
  C       0.130175     -2.348064      1.701284
  C       2.207363     -2.136467      0.731075
  C       1.296741     -2.647772     -0.268592
  C       1.499693     -1.991155      1.937118
  N      -1.046106      0.181990     -0.527554
  C      -2.311391      0.520003      0.140968
  C      -3.136728      1.553484     -0.607651
  H      -3.966867      1.865273      0.024619
  H      -3.576292      1.161763     -1.526520
  H      -2.558872      2.447276     -0.845252
  C      -3.106914     -0.753133      0.401584
  H      -2.010717      0.945032      1.100080
  H      -4.015592     -0.508754      0.949555
  H      -3.400902     -1.235285     -0.531698
  H      -2.549985     -1.469179      1.004129
  C      -0.839988      0.392320     -1.768899
  C       0.513636      0.151420     -2.226208
  H      -1.610651      0.765319     -2.437257
  C       1.615628      0.505871     -1.455058
  C       2.820539      0.076493     -2.085861
  S       0.939364     -0.658842     -3.666003
  C       2.608564     -0.553901     -3.270222
  H       1.542980      1.385680     -0.694416
  H       3.806405      0.281597     -1.694602
  H       3.345126     -0.947540     -3.954216
  H      -0.858563     -3.164279     -0.150718
  H      -0.652498     -2.376904      2.445096
  H       1.895083     -1.594898      2.861369
  O       1.282760      2.481834      0.274128
  O       0.537906      0.899990      1.659950
  C       0.892395      2.112128      1.376091
  C       0.817491      3.064780      2.537341
  H       0.766589      4.092203      2.187280
  H       1.720219      2.962032      3.142609
  H      -0.030102      2.849193      3.184714
  H       3.251984     -1.910276      0.577278
  H       1.547370     -2.877537     -1.293933
39
Coordinates from ORCA-job reaction4-IEIP_ts_guess_scan_3-1_orca E -1288.399332087815
  Ir      0.596542     -0.718333      0.433949
  C       0.037767     -2.801399      0.334005
  C       0.130521     -2.347301      1.700320
  C       2.207968     -2.133205      0.731078
  C       1.298329     -2.644986     -0.269197
  C       1.499518     -1.989076      1.936857
  N      -1.046224      0.181556     -0.527502
  C      -2.311711      0.518615      0.141336
  C      -3.137043      1.553393     -0.605549
  H      -3.966970      1.864367      0.027409
  H      -3.576975      1.163232     -1.524898
  H      -2.559058      2.447424     -0.841912
  C      -3.107450     -0.754824      0.399909
  H      -2.011173      0.942178      1.101134
  H      -4.016222     -0.511161      0.948046
  H      -3.401271     -1.235570     -0.534150
  H      -2.550747     -1.471849      1.001498
  C      -0.840636      0.392059     -1.768809
  C       0.512802      0.152710     -2.227165
  H      -1.611953      0.764560     -2.436670
  C       1.614951      0.506123     -1.455895
  C       2.819729      0.073269     -2.084292
  S       0.939155     -0.649490     -3.671073
  C       2.607612     -0.557326     -3.268605
  H       1.542763      1.384015     -0.693094
  H       3.805484      0.273007     -1.689986
  H       3.343918     -0.955330     -3.950358
  H      -0.856515     -3.163580     -0.152489
  H      -0.652540     -2.377003      2.443682
  H       1.894081     -1.592694      2.861409
  O       1.284747      2.481964      0.274006
  O       0.536386      0.900985      1.659240
  C       0.891657      2.112820      1.375263
  C       0.818572      3.065341      2.536749
  H       0.769785      4.092953      2.186971
  H       1.721025      2.960597      3.142110
  H      -0.029522      2.851262      3.183976
  H       3.252476     -1.905984      0.577963
  H       1.549594     -2.874131     -1.294526
39
Coordinates from ORCA-job reaction4-IEIP_ts_guess_scan_3-1_orca E -1288.399335965045
  Ir      0.595572     -0.717292      0.435303
  C       0.038784     -2.800373      0.333071
  C       0.129606     -2.347362      1.699796
  C       2.207948     -2.130587      0.732894
  C       1.299855     -2.642339     -0.268756
  C       1.497970     -1.988051      1.938030
  N      -1.045515      0.180815     -0.526468
  C      -2.311217      0.517481      0.142440
  C      -3.135538      1.554697     -0.602287
  H      -3.964998      1.865347      0.031461
  H      -3.576189      1.167016     -1.522328
  H      -2.556518      2.448503     -0.836943
  C      -3.108156     -0.755834      0.397983
  H      -2.010815      0.938789      1.103261
  H      -4.017022     -0.512592      0.946167
  H      -3.401844     -1.234414     -0.537224
  H      -2.552338     -1.474606      0.998332
  C      -0.840450      0.390270     -1.767972
  C       0.512496      0.151041     -2.227422
  H      -1.612586      0.761159     -2.435748
  C       1.615120      0.503460     -1.456322
  C       2.819681      0.070715     -2.084869
  S       0.938508     -0.649074     -3.672383
  C       2.607197     -0.556316     -3.271118
  H       1.543324      1.380673     -0.692524
  H       3.805504      0.268821     -1.689928
  H       3.343194     -0.952964     -3.954001
  H      -0.854648     -3.162805     -0.154799
  H      -0.654351     -2.378036      2.442166
  H       1.891177     -1.591934      2.863275
  O       1.286135      2.479717      0.273552
  O       0.534761      0.901109      1.659729
  C       0.891694      2.112124      1.374908
  C       0.818221      3.066267      2.535067
  H       0.770476      4.093460      2.183946
  H       1.720082      2.961618      3.141337
  H      -0.030573      2.853619      3.181861
  H       3.252480     -1.902440      0.581258
  H       1.552343     -2.870492     -1.294004
39
Coordinates from ORCA-job reaction4-IEIP_ts_guess_scan_3-1_orca E -1288.399342452357
  Ir      0.595700     -0.717355      0.437428
  C       0.039723     -2.800518      0.334431
  C       0.128604     -2.347711      1.701302
  C       2.208221     -2.130115      0.737072
  C       1.301521     -2.642059     -0.265807
  C       1.496520     -1.987850      1.941260
  N      -1.045210      0.179457     -0.525967
  C      -2.311313      0.515046      0.142907
  C      -3.133472      1.556261     -0.598709
  H      -3.962614      1.866271      0.035783
  H      -3.574569      1.172703     -1.520258
  H      -2.552607      2.449715     -0.830092
  C      -3.110057     -0.758309      0.392613
  H      -2.011567      0.932410      1.105621
  H      -4.019318     -0.516118      0.940607
  H      -3.403091     -1.232995     -0.544778
  H      -2.555799     -1.480085      0.990831
  C      -0.841395      0.388157     -1.767917
  C       0.511006      0.150626     -2.229015
  H      -1.615010      0.757073     -2.435101
  C       1.613541      0.500888     -1.456733
  C       2.818299      0.070561     -2.086184
  S       0.937507     -0.644969     -3.676084
  C       2.606016     -0.553413     -3.274211
  H       1.541660      1.378238     -0.692527
  H       3.804015      0.267706     -1.690532
  H       3.342071     -0.947890     -3.958287
  H      -0.852923     -3.163102     -0.154782
  H      -0.656414     -2.378455      2.442544
  H       1.888436     -1.591623      2.867010
  O       1.286547      2.478829      0.272338
  O       0.535059      0.902364      1.660852
  C       0.892476      2.112725      1.374403
  C       0.820693      3.068509      2.533318
  H       0.772963      4.095252      2.180917
  H       1.723236      2.964247      3.138655
  H      -0.027398      2.857040      3.181423
  H       3.252999     -1.902001      0.587113
  H       1.555317     -2.870321     -1.290702
