39
Coordinates from ORCA-job reaction4-IEIP_ts_guess_scan_0-11_orca E -1288.391542329930
  Ir      0.562464     -0.743374      0.510088
  C       0.004703     -2.817967      0.369431
  C       0.081702     -2.381412      1.742813
  C       2.171595     -2.160431      0.804814
  C       1.272092     -2.651290     -0.215510
  C       1.450610     -2.033728      2.003941
  N      -1.040277      0.155986     -0.503836
  C      -2.321843      0.484568      0.142277
  C      -3.129037      1.534817     -0.604003
  H      -3.965907      1.843850      0.020767
  H      -3.558585      1.160477     -1.534596
  H      -2.540828      2.426919     -0.821386
  C      -3.128132     -0.789320      0.363122
  H      -2.044196      0.893471      1.115449
  H      -4.051797     -0.550529      0.888130
  H      -3.396087     -1.258032     -0.584747
  H      -2.591108     -1.515666      0.971566
  C      -0.825802      0.360095     -1.746693
  C       0.525782      0.162582     -2.220699
  H      -1.609448      0.706124     -2.415120
  C       1.634417      0.546266     -1.476805
  C       2.831925      0.161191     -2.143413
  S       0.938401     -0.585226     -3.704512
  C       2.609477     -0.445926     -3.340801
  H       1.541525      1.422937     -0.635262
  H       3.822816      0.377400     -1.770956
  H       3.341891     -0.803490     -4.048863
  H      -0.884154     -3.170414     -0.133837
  H      -0.711564     -2.420070      2.475057
  H       1.835618     -1.655924      2.940187
  O       1.343364      2.410096      0.253285
  O       0.539067      0.906485      1.693601
  C       0.932339      2.090189      1.370688
  C       0.893315      3.094020      2.486873
  H       0.848480      4.105796      2.093207
  H       1.808541      3.005901      3.075719
  H       0.057356      2.916630      3.160006
  H       3.216805     -1.927456      0.664321
  H       1.533850     -2.856355     -1.243562
39
Coordinates from ORCA-job reaction4-IEIP_ts_guess_scan_0-11_orca E -1288.391564999719
  Ir      0.562281     -0.742832      0.510551
  C       0.004494     -2.817572      0.369982
  C       0.081144     -2.380973      1.743404
  C       2.171347     -2.159967      0.805824
  C       1.272103     -2.650894     -0.214723
  C       1.449997     -2.033229      2.004813
  N      -1.040359      0.155901     -0.503942
  C      -2.322520      0.483425      0.141586
  C      -3.129804      1.533558     -0.604789
  H      -3.967178      1.842006      0.019605
  H      -3.558648      1.159349     -1.535749
  H      -2.541866      2.425980     -0.821583
  C      -3.128213     -0.791024      0.361331
  H      -2.045798      0.892033      1.115143
  H      -4.052367     -0.553067      0.885869
  H      -3.395259     -1.259446     -0.586933
  H      -2.591096     -1.517339      0.969741
  C      -0.825710      0.359984     -1.747047
  C       0.525670      0.162154     -2.221801
  H      -1.609561      0.705851     -2.415342
  C       1.634542      0.544225     -1.477850
  C       2.831381      0.158300     -2.145317
  S       0.937034     -0.581723     -3.708083
  C       2.608186     -0.446504     -3.343790
  H       1.542152      1.425068     -0.632164
  H       3.822641      0.372432     -1.772591
  H       3.340067     -0.803921     -4.052507
  H      -0.884234     -3.170076     -0.133481
  H      -0.712285     -2.419668      2.475461
  H       1.834781     -1.655450      2.941163
  O       1.345683      2.412692      0.256242
  O       0.539407      0.909337      1.694750
  C       0.933853      2.092819      1.373217
  C       0.895455      3.096244      2.489595
  H       0.850883      4.108220      2.096353
  H       1.810835      3.007577      3.078123
  H       0.059614      2.918780      3.162776
  H       3.216602     -1.927052      0.665604
  H       1.534117     -2.856008     -1.242703
39
Coordinates from ORCA-job reaction4-IEIP_ts_guess_scan_0-11_orca E -1288.391570188650
  Ir      0.562202     -0.742831      0.512123
  C       0.004182     -2.817350      0.371794
  C       0.079632     -2.380639      1.745179
  C       2.170787     -2.159968      0.809450
  C       1.272416     -2.650870     -0.211849
  C       1.448258     -2.032884      2.007724
  N      -1.039807      0.155278     -0.503836
  C      -2.322268      0.482696      0.141190
  C      -3.129046      1.533249     -0.605179
  H      -3.966542      1.841794      0.019008
  H      -3.557700      1.159414     -1.536372
  H      -2.540762      2.425530     -0.821596
  C      -3.128304     -0.791678      0.360081
  H      -2.046039      0.890925      1.115058
  H      -4.052739     -0.553765      0.884151
  H      -3.394841     -1.259772     -0.588490
  H      -2.591631     -1.518249      0.968562
  C      -0.825342      0.358835     -1.747213
  C       0.525642      0.161356     -2.222953
  H      -1.609641      0.704310     -2.415184
  C       1.634791      0.540718     -1.478368
  C       2.831059      0.157801     -2.148581
  S       0.935657     -0.580442     -3.710780
  C       2.607088     -0.442035     -3.349454
  H       1.542778      1.423839     -0.630446
  H       3.822623      0.371793     -1.776538
  H       3.338467     -0.795485     -4.060666
  H      -0.884118     -3.169822     -0.132440
  H      -0.714468     -2.419159      2.476506
  H       1.832203     -1.654954      2.944356
  O       1.348067      2.412289      0.257428
  O       0.539084      0.909611      1.694840
  C       0.934864      2.092462      1.374153
  C       0.896549      3.096163      2.490080
  H       0.851912      4.108077      2.096658
  H       1.812052      3.007654      3.078437
  H       0.060773      2.918688      3.163291
  H       3.216209     -1.927258      0.670185
  H       1.535323     -2.856130     -1.239571
39
Coordinates from ORCA-job reaction4-IEIP_ts_guess_scan_0-11_orca E -1288.391574995460
  Ir      0.562277     -0.742645      0.513022
  C       0.004280     -2.817015      0.373170
  C       0.078812     -2.380101      1.746469
  C       2.170660     -2.159587      0.812083
  C       1.272950     -2.650627     -0.209715
  C       1.447232     -2.032162      2.009798
  N      -1.039626      0.154577     -0.503965
  C      -2.322413      0.481112      0.140955
  C      -3.128888      1.532778     -0.604228
  H      -3.966444      1.840697      0.020188
  H      -3.557460      1.160242     -1.535973
  H      -2.540373      2.425197     -0.819428
  C      -3.128666     -0.793491      0.357714
  H      -2.046701      0.888005      1.115534
  H      -4.053398     -0.556229      0.881557
  H      -3.394659     -1.260329     -0.591629
  H      -2.592379     -1.520884      0.965537
  C      -0.825580      0.358685     -1.747422
  C       0.525055      0.163000     -2.224370
  H      -1.610522      0.704075     -2.414668
  C       1.634368      0.539282     -1.478782
  C       2.830284      0.156457     -2.149512
  S       0.934446     -0.571554     -3.716017
  C       2.605817     -0.440630     -3.351718
  H       1.543227      1.423308     -0.629679
  H       3.822103      0.367060     -1.776185
  H       3.336942     -0.794355     -4.063037
  H      -0.883666     -3.169595     -0.131610
  H      -0.715780     -2.418505      2.477260
  H       1.830525     -1.653997      2.946602
  O       1.350700      2.412693      0.257629
  O       0.539153      0.910562      1.694237
  C       0.936182      2.092791      1.374176
  C       0.898194      3.096830      2.489664
  H       0.853120      4.108636      2.096026
  H       1.814094      3.008725      3.077469
  H       0.062801      2.919229      3.163305
  H       3.216197     -1.926982      0.673515
  H       1.536506     -2.856061     -1.237231
39
Coordinates from ORCA-job reaction4-IEIP_ts_guess_scan_0-11_orca E -1288.391578875208
  Ir      0.562124     -0.743199      0.513807
  C       0.003621     -2.817400      0.374449
  C       0.077665     -2.380135      1.747644
  C       2.170026     -2.160495      0.814117
  C       1.272590     -2.651539     -0.207940
  C       1.446056     -2.032466      2.011453
  N      -1.039457      0.153800     -0.503838
  C      -2.322532      0.479612      0.141000
  C      -3.128503      1.532685     -0.602779
  H      -3.966056      1.839981      0.021947
  H      -3.557080      1.161728     -1.535152
  H      -2.539610      2.425198     -0.816550
  C      -3.129244     -0.795110      0.355417
  H      -2.047237      0.884953      1.116339
  H      -4.054220     -0.558401      0.879082
  H      -3.394803     -1.260475     -0.594770
  H      -2.593492     -1.523552      0.962454
  C      -0.825622      0.358362     -1.747266
  C       0.524799      0.163852     -2.224716
  H      -1.611029      0.703208     -2.414251
  C       1.634178      0.538293     -1.478297
  C       2.830125      0.156930     -2.149629
  S       0.934252     -0.568198     -3.717557
  C       2.605622     -0.437172     -3.353347
  H       1.543490      1.422042     -0.629723
  H       3.821951      0.366733     -1.775894
  H       3.336791     -0.789052     -4.065536
  H      -0.884182     -3.169884     -0.130652
  H      -0.717269     -2.418120      2.478086
  H       1.829044     -1.654160      2.948326
  O       1.352436      2.412496      0.256711
  O       0.539672      0.911511      1.694038
  C       0.937370      2.093241      1.373403
  C       0.899926      3.098179      2.488128
  H       0.854091      4.109639      2.093729
  H       1.816442      3.010975      3.075120
  H       0.065223      2.920756      3.162692
  H       3.215713     -1.928302      0.675985
  H       1.536499     -2.857323     -1.235290
39
Coordinates from ORCA-job reaction4-IEIP_ts_guess_scan_0-11_orca E -1288.391584344197
  Ir      0.561733     -0.743817      0.515878
  C       0.003640     -2.817880      0.376047
  C       0.075514     -2.380596      1.749301
  C       2.169388     -2.160911      0.819007
  C       1.273491     -2.651932     -0.204425
  C       1.443454     -2.032757      2.015164
  N      -1.038980      0.152122     -0.503209
  C      -2.322366      0.477203      0.141566
  C      -3.126679      1.533463     -0.599559
  H      -3.963908      1.840275      0.025846
  H      -3.555677      1.165768     -1.533029
  H      -2.536385      2.425649     -0.810774
  C      -3.130689     -0.797275      0.351518
  H      -2.047566      0.879440      1.118329
  H      -4.056032     -0.561078      0.874770
  H      -3.395611     -1.259732     -0.600264
  H      -2.596408     -1.527992      0.957112
  C      -0.825868      0.356635     -1.746817
  C       0.524028      0.164026     -2.225519
  H      -1.612370      0.700024     -2.413296
  C       1.633780      0.535089     -1.477891
  C       2.829642      0.157401     -2.151101
  S       0.933312     -0.562179     -3.721200
  C       2.604730     -0.431241     -3.357531
  H       1.543970      1.418254     -0.629437
  H       3.821571      0.365879     -1.776952
  H       3.335780     -0.779373     -4.071693
  H      -0.883294     -3.170479     -0.130495
  H      -0.720586     -2.418569      2.478470
  H       1.824970     -1.654416      2.952622
  O       1.355849      2.410777      0.255308
  O       0.539439      0.912491      1.693717
  C       0.938937      2.093099      1.371985
  C       0.901914      3.099950      2.485100
  H       0.854133      4.110640      2.088991
  H       1.819652      3.015093      3.070545
  H       0.068634      2.922625      3.161452
  H       3.215323     -1.928830      0.682592
  H       1.538905     -2.857660     -1.231391
39
Coordinates from ORCA-job reaction4-IEIP_ts_guess_scan_0-11_orca E -1288.391588295483
  Ir      0.561733     -0.743921      0.517446
  C       0.004288     -2.818049      0.376637
  C       0.074220     -2.380979      1.750043
  C       2.169370     -2.160769      0.822662
  C       1.274885     -2.651730     -0.202065
  C       1.441738     -2.032910      2.017814
  N      -1.038731      0.151298     -0.502708
  C      -2.322365      0.475655      0.142052
  C      -3.125372      1.534405     -0.597002
  H      -3.962414      1.840778      0.028877
  H      -3.554594      1.169302     -1.531382
  H      -2.533974      2.426345     -0.806126
  C      -3.131695     -0.798804      0.348241
  H      -2.048023      0.875331      1.119981
  H      -4.057341     -0.563302      0.871276
  H      -3.396073     -1.258810     -0.604879
  H      -2.598364     -1.531348      0.952481
  C      -0.826379      0.355428     -1.746600
  C       0.523074      0.163940     -2.226340
  H      -1.613765      0.697581     -2.412682
  C       1.633097      0.532861     -1.478050
  C       2.828818      0.156928     -2.152202
  S       0.932184     -0.558346     -3.723928
  C       2.603574     -0.428282     -3.360336
  H       1.544094      1.415630     -0.628901
  H       3.820836      0.364184     -1.777640
  H       3.334489     -0.774462     -4.075587
  H      -0.881836     -3.170794     -0.131226
  H      -0.722893     -2.419208      2.478091
  H       1.821919     -1.654719      2.955875
  O       1.358187      2.409608      0.254678
  O       0.539361      0.913388      1.693924
  C       0.940103      2.093292      1.371325
  C       0.903226      3.101423      2.483343
  H       0.853272      4.111542      2.086019
  H       1.822169      3.018815      3.067219
  H       0.071400      2.923682      3.161346
  H       3.215487     -1.928616      0.687796
  H       1.541666     -2.857175     -1.228731
