! Opt PBEh-3c
%geom Constraints
{ B 0 20 2.257142857142857 C }
{ B 24 30 1.3 C }
    end
end
%output 
xyzfile=True 
end 
%scf 
maxiter 250 
end
%output
Print[P_Hirshfeld] = 1
end
% maxcore
4000
*xyz 1 1
Ir   0.59657777  -0.74023058   0.48168766 
C    0.08090609  -2.83772466   0.39835510 
C   -0.07044423  -2.35889269   1.74761644 
C    2.14640918  -2.11145378   1.13645234 
C    1.43075630  -2.67819874   0.02136232 
C    1.21869580  -1.94369111   2.19053773 
N   -1.05250003   0.10950953  -0.50541056 
C   -2.33902857   0.32270068   0.17897965 
C   -3.12846551   1.50949495  -0.35568336 
H   -3.96561795   1.70502738   0.31273567 
H   -3.55541062   1.32590504  -1.34253408 
H   -2.52467657   2.41628181  -0.39735239 
C   -3.16196680  -0.95949951   0.12885256 
H   -2.07689958   0.53197683   1.21716196 
H   -4.08267940  -0.83224204   0.69686091 
H   -3.43537741  -1.21106163  -0.89672562 
H   -2.62877191  -1.80662243   0.55711996 
C   -0.88722035   0.43053284  -1.73581402 
C    0.43298486   0.28404743  -2.27456393 
H   -1.70259348   0.82568369  -2.33434786 
C    1.51751452   0.17783798  -1.41542214 
C    2.70974650  -0.06853991  -2.15030288 
S    0.86107862   0.13063575  -3.91663213 
C    2.50207850  -0.10894828  -3.49816888 
H    1.64588039   1.18626138  -0.55493577 
H    3.69083957  -0.15466811  -1.70650209 
H    3.23771547  -0.24920779  -4.27565315 
H   -0.70196677  -3.24511110  -0.22475099 
H   -0.96742186  -2.38865630   2.34757241 
H    1.43681100  -1.50311867   3.15323367 
O    1.72929856   2.27286904   0.17968804 
O    0.54117851   1.01032981   1.57475317 
C    1.11731308   2.09617861   1.25312289 
C    1.07283081   3.21357638   2.25123416 
H    0.99798748   4.17479034   1.74818848 
H    2.00544934   3.21703834   2.81829633 
H    0.25162033   3.09162688   2.95198802 
H    3.20315717  -1.89686858   1.17765101 
H    1.85358123  -2.93837875  -0.93791043 
*
