! Opt PBEh-3c
%geom Constraints
{ B 0 20 2.2142857142857144 C }
{ B 24 30 1.4857142857142858 C }
    end
end
%output 
xyzfile=True 
end 
%scf 
maxiter 250 
end
%output
Print[P_Hirshfeld] = 1
end
% maxcore
4000
*xyz 1 1
Ir   0.62418710  -0.70552926   0.41760779 
C    0.08958354  -2.80776876   0.34124600 
C    0.09383133  -2.34521581   1.70359091 
C    2.22476831  -2.09972442   0.85175799 
C    1.38375427  -2.64424584  -0.18889469 
C    1.43249194  -1.94736801   2.00856751 
N   -1.04567069   0.15610805  -0.52877619 
C   -2.30739515   0.44969127   0.16768554 
C   -3.09946760   1.58503072  -0.46179679 
H   -3.91998440   1.85316496   0.20232233 
H   -3.55049840   1.30955896  -1.41622914 
H   -2.49008592   2.47796055  -0.60331000 
C   -3.13549789  -0.82577887   0.27386208 
H   -2.00567742   0.75321737   1.17106670 
H   -4.03790075  -0.62955851   0.85099272 
H   -3.44017739  -1.18333153  -0.71053656 
H   -2.59276030  -1.62347511   0.77884773 
C   -0.87978415   0.39132624  -1.77453261 
C    0.45802031   0.17536408  -2.26540655 
H   -1.67545611   0.76697545  -2.41053391 
C    1.53382883   0.30360249  -1.38486246 
C    2.74920828  -0.06152685  -2.04055893 
S    0.91443035  -0.36908055  -3.80533418 
C    2.56470260  -0.44267769  -3.33170480 
H    1.52206504   1.24841204  -0.66554716 
H    3.72431496   0.01044175  -1.58121337 
H    3.31288875  -0.74055848  -4.05055509 
H   -0.76574286  -3.19446145  -0.19399009 
H   -0.73266567  -2.37549066   2.39763664 
H    1.76259817  -1.52703720   2.94784911 
O    1.36624758   2.46192576   0.20226929 
O    0.53926000   0.94903243   1.61407944 
C    0.93418642   2.13622570   1.30728328 
C    0.86545005   3.13315314   2.43052400 
H    0.83538507   4.14828537   2.04426794 
H    1.76198677   3.03617675   3.04585945 
H    0.00887273   2.95349516   3.07670616 
H    3.27865782  -1.88042553   0.77156770 
H    1.69741451  -2.89670378  -1.19106769 
*
