39
Coordinates from ORCA-job reaction4-IEIP_ts_guess_scan_3-14_orca E -1288.394719765415
  Ir      0.582102     -0.739056      0.511476
  C       0.053536     -2.823863      0.370023
  C       0.011836     -2.370645      1.738178
  C       2.174633     -2.135383      0.971330
  C       1.366050     -2.653540     -0.108832
  C       1.347216     -1.996713      2.101553
  N      -1.038850      0.129798     -0.496364
  C      -2.324328      0.405134      0.169885
  C      -3.099415      1.555829     -0.454617
  H      -3.933974      1.813498      0.196132
  H      -3.529912      1.301668     -1.424132
  H      -2.484681      2.449214     -0.566174
  C      -3.158065     -0.869726      0.221127
  H      -2.057609      0.688635      1.189173
  H      -4.078496     -0.686644      0.773841
  H      -3.432047     -1.202851     -0.780814
  H      -2.633926     -1.682108      0.722320
  C      -0.855869      0.362882     -1.739367
  C       0.478125      0.192603     -2.247377
  H      -1.662808      0.707335     -2.380415
  C       1.590372      0.391121     -1.441483
  C       2.778562      0.060325     -2.148529
  S       0.878680     -0.319343     -3.828624
  C       2.545216     -0.326370     -3.434518
  H       1.571505      1.321834     -0.574993
  H       3.773259      0.161452     -1.739160
  H       3.271278     -0.596109     -4.186718
  H      -0.783695     -3.199074     -0.200652
  H      -0.837949     -2.409830      2.403684
  H       1.646660     -1.595630      3.059435
  O       1.487885      2.356220      0.207983
  O       0.547835      0.954607      1.653392
  C       1.002502      2.100988      1.316515
  C       0.956978      3.160717      2.377486
  H       0.889517      4.150036      1.932628
  H       1.883351      3.121592      2.954005
  H       0.132720      3.002163      3.068555
  H       3.228956     -1.908251      0.923114
  H       1.712220     -2.873327     -1.108329
39
Coordinates from ORCA-job reaction4-IEIP_ts_guess_scan_3-14_orca E -1288.394866829339
  Ir      0.584907     -0.740349      0.512004
  C       0.051623     -2.825744      0.375967
  C       0.009149     -2.370882      1.743234
  C       2.173098     -2.139798      0.978123
  C       1.364915     -2.658941     -0.101679
  C       1.344248     -1.997542      2.106987
  N      -1.038800      0.129163     -0.498450
  C      -2.323505      0.403783      0.168163
  C      -3.099756      1.552212     -0.458915
  H      -3.935162      1.809941      0.190690
  H      -3.528950      1.295514     -1.428375
  H      -2.486186      2.446254     -0.571726
  C      -3.155020     -0.872361      0.221827
  H      -2.056402      0.689136      1.186841
  H      -4.075477     -0.689889      0.774663
  H      -3.428909     -1.207609     -0.779430
  H      -2.629121     -1.682924      0.724194
  C      -0.857856      0.365170     -1.743754
  C       0.476689      0.201354     -2.256993
  H      -1.666426      0.712678     -2.381104
  C       1.586975      0.387007     -1.445772
  C       2.775627      0.056975     -2.153066
  S       0.878407     -0.299130     -3.841301
  C       2.544064     -0.316814     -3.443083
  H       1.570899      1.326283     -0.574962
  H       3.769781      0.150988     -1.740659
  H       3.270970     -0.582416     -4.195838
  H      -0.785526     -3.200868     -0.194906
  H      -0.841221     -2.408242      2.407975
  H       1.643162     -1.595284      3.064522
  O       1.492068      2.361229      0.207772
  O       0.547936      0.956465      1.655142
  C       1.005386      2.103017      1.318458
  C       0.960677      3.161926      2.379991
  H       0.894055      4.151779      1.936084
  H       1.886957      3.121504      2.956540
  H       0.136144      3.003217      3.070605
  H       3.228004     -1.915349      0.931050
  H       1.711944     -2.882264     -1.100078
39
Coordinates from ORCA-job reaction4-IEIP_ts_guess_scan_3-14_orca E -1288.394945004346
  Ir      0.584194     -0.741242      0.513729
  C       0.044972     -2.826335      0.387099
  C       0.000335     -2.367908      1.752454
  C       2.166345     -2.143018      0.990593
  C       1.359710     -2.664675     -0.088598
  C       1.334474     -1.994661      2.116920
  N      -1.035719      0.125427     -0.499255
  C      -2.320873      0.398571      0.166822
  C      -3.099211      1.545930     -0.459747
  H      -3.935037      1.802249      0.189894
  H      -3.528072      1.288688     -1.429178
  H      -2.487113      2.441007     -0.572404
  C      -3.150994     -0.878515      0.221273
  H      -2.053866      0.684045      1.185530
  H      -4.071696     -0.696899      0.774053
  H      -3.424453     -1.214659     -0.779783
  H      -2.623967     -1.687921      0.724145
  C      -0.855257      0.366461     -1.745054
  C       0.478492      0.207362     -2.265204
  H      -1.665283      0.717612     -2.378161
  C       1.588736      0.373744     -1.449855
  C       2.776811      0.055203     -2.163877
  S       0.878376     -0.264554     -3.858043
  C       2.544337     -0.292653     -3.460889
  H       1.576656      1.322953     -0.574227
  H       3.771345      0.140095     -1.750334
  H       3.270691     -0.543986     -4.219005
  H      -0.791695     -3.201714     -0.184274
  H      -0.851412     -2.401664      2.415500
  H       1.631891     -1.589317      3.073619
  O       1.503173      2.359558      0.206830
  O       0.543940      0.957891      1.653129
  C       1.009213      2.101157      1.317304
  C       0.966015      3.161433      2.376692
  H       0.906017      4.151248      1.931713
  H       1.889903      3.116923      2.956790
  H       0.137915      3.007053      3.063901
  H       3.222046     -1.922039      0.945713
  H       1.708432     -2.893662     -1.085073
39
Coordinates from ORCA-job reaction4-IEIP_ts_guess_scan_3-14_orca E -1288.394973912669
  Ir      0.585309     -0.744276      0.516827
  C       0.042282     -2.828919      0.399292
  C      -0.003790     -2.365988      1.762752
  C       2.163948     -2.147366      1.002879
  C       1.358159     -2.671756     -0.075432
  C       1.330039     -1.992839      2.127117
  N      -1.034661      0.121721     -0.500895
  C      -2.321369      0.392150      0.164197
  C      -3.099585      1.541741     -0.458441
  H      -3.936059      1.795111      0.191494
  H      -3.527651      1.288258     -1.429209
  H      -2.487785      2.437549     -0.566933
  C      -3.152447     -0.884655      0.212893
  H      -2.056166      0.673872      1.184436
  H      -4.074319     -0.704137      0.764083
  H      -3.423811     -1.217560     -0.789817
  H      -2.627228     -1.695814      0.714540
  C      -0.854449      0.369262     -1.745391
  C       0.477446      0.214189     -2.269625
  H      -1.665777      0.722832     -2.375411
  C       1.588035      0.363674     -1.451661
  C       2.775333      0.054089     -2.170369
  S       0.876128     -0.227491     -3.870920
  C       2.541764     -0.269739     -3.473548
  H       1.580665      1.317355     -0.573614
  H       3.770008      0.126890     -1.754887
  H       3.267418     -0.510888     -4.235612
  H      -0.794094     -3.205033     -0.172015
  H      -0.856503     -2.395975      2.424705
  H       1.626700     -1.584071      3.082612
  O       1.511998      2.355981      0.205193
  O       0.544374      0.960061      1.651653
  C       1.014138      2.099957      1.315241
  C       0.973861      3.163403      2.371273
  H       0.918138      4.152334      1.923842
  H       1.896891      3.116889      2.952602
  H       0.144274      3.013658      3.057739
  H       3.220276     -1.929209      0.959421
  H       1.707880     -2.906067     -1.070270
39
Coordinates from ORCA-job reaction4-IEIP_ts_guess_scan_3-14_orca E -1288.394994230553
  Ir      0.584563     -0.747563      0.520567
  C       0.038706     -2.831001      0.409394
  C      -0.009994     -2.364271      1.771288
  C       2.160129     -2.151345      1.015481
  C       1.356144     -2.677654     -0.063117
  C       1.323399     -1.991511      2.137027
  N      -1.032499      0.118085     -0.500801
  C      -2.320455      0.386090      0.163643
  C      -3.097889      1.539042     -0.453957
  H      -3.934426      1.789506      0.196988
  H      -3.525939      1.290484     -1.426005
  H      -2.485834      2.435229     -0.557943
  C      -3.152792     -0.890167      0.205148
  H      -2.056975      0.663129      1.185624
  H      -4.075884     -0.710962      0.754703
  H      -3.421944     -1.218724     -0.799598
  H      -2.629749     -1.703974      0.704807
  C      -0.852307      0.370418     -1.743925
  C       0.477279      0.216977     -2.271135
  H      -1.664757      0.725068     -2.372022
  C       1.589230      0.350680     -1.452367
  C       2.775574      0.054348     -2.177372
  S       0.873526     -0.200602     -3.879267
  C       2.539985     -0.243460     -3.486686
  H       1.586333      1.306391     -0.572687
  H       3.770803      0.118672     -1.761933
  H       3.264613     -0.469499     -4.254341
  H      -0.796800     -3.207418     -0.162990
  H      -0.864312     -2.390697      2.431308
  H       1.618583     -1.579801      3.091730
  O       1.521000      2.347901      0.202548
  O       0.543749      0.961035      1.649472
  C       1.018297      2.097032      1.311633
  C       0.979229      3.165830      2.362577
  H       0.927753      4.152911      1.910670
  H       1.900779      3.118888      2.946208
  H       0.147594      3.021874      3.047869
  H       3.217027     -1.935547      0.974467
  H       1.707630     -2.916206     -1.056267
39
Coordinates from ORCA-job reaction4-IEIP_ts_guess_scan_3-14_orca E -1288.395001115410
  Ir      0.583572     -0.748678      0.522214
  C       0.038172     -2.831465      0.412325
  C      -0.013028     -2.363327      1.773683
  C       2.158719     -2.151694      1.021548
  C       1.356637     -2.678818     -0.058062
  C       1.319866     -1.990260      2.141248
  N      -1.031535      0.116422     -0.500067
  C      -2.320015      0.382177      0.164628
  C      -3.096796      1.538074     -0.448539
  H      -3.933099      1.786247      0.203580
  H      -3.525160      1.293721     -1.421511
  H      -2.484391      2.434416     -0.549041
  C      -3.152919     -0.893864      0.199846
  H      -2.057593      0.655165      1.187956
  H      -4.076855     -0.716379      0.748550
  H      -3.420574     -1.218339     -0.806631
  H      -2.631190     -1.710065      0.697062
  C      -0.851552      0.371507     -1.742434
  C       0.476824      0.219731     -2.270778
  H      -1.664604      0.726752     -2.369512
  C       1.589917      0.344882     -1.452465
  C       2.775457      0.052992     -2.179744
  S       0.872525     -0.177399     -3.884323
  C       2.538013     -0.235876     -3.491040
  H       1.590377      1.299272     -0.571586
  H       3.770927      0.109320     -1.763815
  H       3.261576     -0.459658     -4.260371
  H      -0.796178     -3.208277     -0.161487
  H      -0.868597     -2.388663      2.432132
  H       1.613547     -1.577299      3.095878
  O       1.527123      2.342762      0.201155
  O       0.542921      0.962169      1.647646
  C       1.020478      2.096062      1.309022
  C       0.980836      3.168429      2.356698
  H       0.931573      4.154106      1.901546
  H       1.901179      3.122008      2.942248
  H       0.147710      3.027892      3.040915
  H       3.215760     -1.936226      0.982569
  H       1.709747     -2.918629     -1.050303
39
Coordinates from ORCA-job reaction4-IEIP_ts_guess_scan_3-14_orca E -1288.395007494131
  Ir      0.584038     -0.748687      0.522389
  C       0.039705     -2.831666      0.410157
  C      -0.012392     -2.364320      1.771887
  C       2.159734     -2.151539      1.021318
  C       1.358368     -2.678053     -0.059191
  C       1.320344     -1.991310      2.140669
  N      -1.031858      0.117220     -0.499448
  C      -2.320132      0.383026      0.165517
  C      -3.096170      1.539624     -0.447319
  H      -3.932393      1.788053      0.204823
  H      -3.524496      1.295895     -1.420459
  H      -2.483187      2.435595     -0.547461
  C      -3.153455     -0.892761      0.199686
  H      -2.057711      0.655420      1.188974
  H      -4.077436     -0.715476      0.748412
  H      -3.421090     -1.216361     -0.807079
  H      -2.632066     -1.709560      0.696218
  C      -0.852238      0.371160     -1.742264
  C       0.476278      0.218876     -2.270065
  H      -1.665310      0.725570     -2.369744
  C       1.589447      0.345809     -1.452247
  C       2.774962      0.052374     -2.178808
  S       0.871919     -0.184524     -3.882336
  C       2.537571     -0.238225     -3.489803
  H       1.590102      1.298774     -0.571306
  H       3.770478      0.110674     -1.763277
  H       3.261257     -0.462184     -4.258977
  H      -0.794095     -3.208445     -0.164472
  H      -0.868317     -2.390458      2.429855
  H       1.613413     -1.579056      3.095790
  O       1.526626      2.342583      0.200984
  O       0.543636      0.961955      1.648299
  C       1.020224      2.096467      1.308926
  C       0.979412      3.168999      2.356357
  H       0.928495      4.154377      1.900710
  H       1.900089      3.124135      2.941489
  H       0.146803      3.027588      3.040993
  H       3.216690     -1.935522      0.983007
  H       1.712125     -2.916837     -1.051465
39
Coordinates from ORCA-job reaction4-IEIP_ts_guess_scan_3-14_orca E -1288.395012649751
  Ir      0.584425     -0.748772      0.523016
  C       0.041352     -2.831947      0.408078
  C      -0.013661     -2.365203      1.770030
  C       2.159982     -2.151363      1.024206
  C       1.360917     -2.677412     -0.058241
  C       1.318327     -1.992153      2.141897
  N      -1.031507      0.117664     -0.498223
  C      -2.319627      0.382677      0.167224
  C      -3.094699      1.541147     -0.443479
  H      -3.930741      1.789066      0.209101
  H      -3.523070      1.299638     -1.417142
  H      -2.480885      2.436719     -0.541970
  C      -3.153527     -0.892791      0.198046
  H      -2.057374      0.652828      1.191284
  H      -4.077655     -0.716632      0.746917
  H      -3.420982     -1.213724     -0.809624
  H      -2.632614     -1.711172      0.692490
  C      -0.852675      0.371014     -1.741487
  C       0.475595      0.218844     -2.269667
  H      -1.666209      0.724659     -2.368775
  C       1.589309      0.344508     -1.452562
  C       2.774319      0.051075     -2.179660
  S       0.870435     -0.185637     -3.882226
  C       2.536066     -0.238320     -3.490911
  H       1.591809      1.295822     -0.570350
  H       3.770118      0.109397     -1.764850
  H       3.259392     -0.461410     -4.260687
  H      -0.790947     -3.208865     -0.168623
  H      -0.870880     -2.392110      2.426289
  H       1.609381     -1.580435      3.097865
  O       1.529449      2.340767      0.200495
  O       0.544042      0.962240      1.648382
  C       1.021100      2.096655      1.307948
  C       0.977838      3.170550      2.353797
  H       0.925474      4.155057      1.896386
  H       1.898323      3.128167      2.939387
  H       0.145107      3.028876      3.038190
  H       3.216920     -1.934872      0.988180
  H       1.716740     -2.915363     -1.049990
39
Coordinates from ORCA-job reaction4-IEIP_ts_guess_scan_3-14_orca E -1288.395018372572
  Ir      0.585140     -0.748954      0.524150
  C       0.044012     -2.832573      0.405990
  C      -0.016632     -2.366180      1.767956
  C       2.159942     -2.150912      1.031045
  C       1.365349     -2.676888     -0.054670
  C       1.313709     -1.992694      2.145371
  N      -1.030850      0.117636     -0.496417
  C      -2.318976      0.380891      0.169655
  C      -3.092484      1.542859     -0.436650
  H      -3.928370      1.789335      0.216673
  H      -3.520752      1.305758     -1.411429
  H      -2.477352      2.437899     -0.531568
  C      -3.153982     -0.893970      0.193987
  H      -2.057216      0.646539      1.194977
  H      -4.078310     -0.720005      0.743247
  H      -3.421184     -1.209680     -0.815407
  H      -2.633891     -1.715350      0.684337
  C      -0.853280      0.371119     -1.740062
  C       0.474323      0.219672     -2.269639
  H      -1.667771      0.724062     -2.366491
  C       1.589098      0.341245     -1.453600
  C       2.773011      0.048649     -2.182427
  S       0.867394     -0.181190     -3.883953
  C       2.532941     -0.236175     -3.494537
  H       1.595538      1.290490     -0.568621
  H       3.769355      0.104914     -1.768686
  H       3.255396     -0.457368     -4.265688
  H      -0.785480     -3.210069     -0.174346
  H      -0.876328     -2.394068      2.420935
  H       1.600777     -1.581261      3.102670
  O       1.536457      2.337323      0.199916
  O       0.544580      0.963254      1.647902
  C       1.023607      2.096779      1.306121
  C       0.976693      3.173284      2.348981
  H       0.922686      4.156315      1.888523
  H       1.896701      3.134669      2.935549
  H       0.143477      3.031756      3.032754
  H       3.216889     -1.933837      0.999371
  H       1.725151     -2.914084     -1.045179
39
Coordinates from ORCA-job reaction4-IEIP_ts_guess_scan_3-14_orca E -1288.395024018603
  Ir      0.586099     -0.749088      0.525473
  C       0.047635     -2.833447      0.403844
  C      -0.021330     -2.367095      1.765541
  C       2.159488     -2.149839      1.041584
  C       1.371575     -2.676407     -0.048579
  C       1.306335     -1.992546      2.150837
  N      -1.030139      0.117065     -0.494265
  C      -2.318475      0.377690      0.172452
  C      -3.090041      1.544402     -0.427492
  H      -3.925942      1.788425      0.226712
  H      -3.517917      1.313574     -1.403935
  H      -2.473346      2.438912     -0.517029
  C      -3.154875     -0.896379      0.187683
  H      -2.057511      0.636880      1.199592
  H      -4.079260     -0.725697      0.737888
  H      -3.422068     -1.204551     -0.824052
  H      -2.635595     -1.721933      0.671910
  C      -0.854093      0.371532     -1.738079
  C       0.472494      0.221161     -2.269968
  H      -1.669881      0.724062     -2.363071
  C       1.588760      0.336722     -1.455347
  C       2.771044      0.045728     -2.187116
  S       0.862702     -0.172579     -3.887053
  C       2.528291     -0.232417     -3.500322
  H       1.600937      1.283713     -0.566412
  H       3.768176      0.098488     -1.774848
  H       3.249374     -0.451117     -4.273471
  H      -0.777792     -3.212045     -0.181523
  H      -0.884633     -2.396187      2.413700
  H       1.587355     -1.580984      3.109886
  O       1.547801      2.332645      0.199692
  O       0.545304      0.965037      1.646703
  C       1.028076      2.096770      1.303817
  C       0.976835      3.176855      2.342627
  H       0.920942      4.157981      1.878254
  H       1.896317      3.143075      2.930283
  H       0.143032      3.035739      3.025701
  H       3.216441     -1.932059      1.016243
  H       1.737254     -2.912895     -1.037121
39
Coordinates from ORCA-job reaction4-IEIP_ts_guess_scan_3-14_orca E -1288.395029346338
  Ir      0.587087     -0.749085      0.526714
  C       0.052482     -2.834529      0.401506
  C      -0.027505     -2.367910      1.762608
  C       2.158697     -2.147534      1.055456
  C       1.379771     -2.675698     -0.040195
  C       1.296313     -1.991227      2.157947
  N      -1.029857      0.115856     -0.492145
  C      -2.318594      0.373203      0.175188
  C      -3.088021      1.545438     -0.416944
  H      -3.924205      1.786044      0.238134
  H      -3.515140      1.322290     -1.395492
  H      -2.469754      2.439521     -0.499578
  C      -3.156504     -0.899953      0.179475
  H      -2.058668      0.624514      1.204520
  H      -4.080631     -0.733487      0.731402
  H      -3.424210     -1.198735     -0.834947
  H      -2.637781     -1.730522      0.655743
  C      -0.855379      0.372214     -1.735814
  C       0.469975      0.223122     -2.270642
  H      -1.672575      0.724876     -2.358949
  C       1.588004      0.331709     -1.457727
  C       2.768263      0.042582     -2.193300
  S       0.856388     -0.161189     -3.891017
  C       2.522279     -0.227544     -3.507659
  H       1.607396      1.276337     -0.564177
  H       3.766319      0.090774     -1.782731
  H       3.241589     -0.443520     -4.283217
  H      -0.767611     -3.214935     -0.190118
  H      -0.895479     -2.398539      2.404436
  H       1.569126     -1.578915      3.119061
  O       1.563438      2.326903      0.200268
  O       0.545996      0.967536      1.644618
  C       1.034657      2.096469      1.301414
  C       0.979387      3.180743      2.335580
  H       0.921372      4.159720      1.866850
  H       1.898661      3.152436      2.923828
  H       0.145295      3.040329      3.018372
  H       3.215577     -1.928738      1.038321
  H       1.753211     -2.911365     -1.026048
39
Coordinates from ORCA-job reaction4-IEIP_ts_guess_scan_3-14_orca E -1288.395033611454
  Ir      0.587628     -0.748818      0.527489
  C       0.058214     -2.835609      0.398793
  C      -0.034461     -2.368580      1.759051
  C       2.157579     -2.143635      1.070819
  C       1.389191     -2.674440     -0.030770
  C       1.284605     -1.988533      2.165525
  N      -1.030489      0.114284     -0.490573
  C      -2.319750      0.368145      0.177251
  C      -3.087425      1.545490     -0.407079
  H      -3.924229      1.782081      0.248643
  H      -3.513429      1.330022     -1.387826
  H      -2.468104      2.439484     -0.482407
  C      -3.158733     -0.904311      0.170777
  H      -2.060950      0.611694      1.208718
  H      -4.082226     -0.742495      0.725140
  H      -3.427558     -1.193503     -0.846128
  H      -2.639926     -1.739751      0.638449
  C      -0.857266      0.373181     -1.733771
  C       0.466935      0.225215     -2.271484
  H      -1.675595      0.726612     -2.355064
  C       1.586708      0.327476     -1.460321
  C       2.764881      0.039989     -2.199890
  S       0.849170     -0.150206     -3.894779
  C       2.515681     -0.222883     -3.515093
  H       1.613838      1.269932     -0.562585
  H       3.763835      0.083769     -1.791007
  H       3.233064     -0.436539     -4.293058
  H      -0.755759     -3.218470     -0.199625
  H      -0.907676     -2.401054      2.393648
  H       1.547780     -1.574831      3.128753
  O       1.581850      2.320794      0.202049
  O       0.546270      0.970546      1.641788
  C       1.042970      2.095836      1.299600
  C       0.985273      3.184097      2.329480
  H       0.924922      4.161038      1.856713
  H       1.905099      3.161021      2.917078
  H       0.151688      3.044582      3.013007
  H       3.214243     -1.923432      1.062925
  H       1.771523     -2.909010     -1.013493
39
Coordinates from ORCA-job reaction4-IEIP_ts_guess_scan_3-14_orca E -1288.395036503223
  Ir      0.587284     -0.748210      0.527534
  C       0.063925     -2.836374      0.395676
  C      -0.040627     -2.369162      1.755121
  C       2.156424     -2.138467      1.084118
  C       1.398126     -2.672381     -0.022763
  C       1.273709     -1.984972      2.171618
  N      -1.032194      0.112939     -0.490080
  C      -2.321884      0.364025      0.178092
  C      -3.088872      1.544463     -0.400818
  H      -3.926452      1.777517      0.255171
  H      -3.513746      1.334356     -1.383217
  H      -2.469456      2.438834     -0.470606
  C      -3.161019     -0.908303      0.164308
  H      -2.063921      0.602390      1.210976
  H      -4.083653     -0.750331      0.721203
  H      -3.431299     -1.190602     -0.854140
  H      -2.641381     -1.747005      0.625233
  C      -0.859622      0.374195     -1.732682
  C       0.463887      0.226913     -2.272296
  H      -1.678446      0.728771     -2.352739
  C       1.584951      0.325307     -1.462487
  C       2.761528      0.038449     -2.205022
  S       0.842745     -0.143326     -3.897257
  C       2.510014     -0.220019     -3.520567
  H       1.618670      1.266178     -0.562261
  H       3.761100      0.079291     -1.797326
  H       3.225800     -0.432456     -4.300314
  H      -0.744286     -3.221921     -0.208767
  H      -0.918605     -2.403614      2.383008
  H       1.527728     -1.569623      3.136619
  O       1.598992      2.315516      0.204878
  O       0.545540      0.973398      1.638831
  C       1.051210      2.094929      1.299013
  C       0.993777      3.185765      2.326291
  H       0.931002      4.161306      1.850859
  H       1.915164      3.166433      2.911560
  H       0.161818      3.047016      3.011890
  H       3.212728     -1.916527      1.084687
  H       1.788711     -2.905506     -1.002601
39
Coordinates from ORCA-job reaction4-IEIP_ts_guess_scan_3-14_orca E -1288.395038449827
  Ir      0.586122     -0.747468      0.526987
  C       0.068178     -2.836724      0.392678
  C      -0.044686     -2.369722      1.751637
  C       2.155486     -2.133587      1.092306
  C       1.404431     -2.670045     -0.018168
  C       1.266168     -1.981849      2.174890
  N      -1.034330      0.112353     -0.490602
  C      -2.324188      0.361987      0.177803
  C      -3.091721      1.542871     -0.399337
  H      -3.929896      1.773845      0.256637
  H      -3.515890      1.334491     -1.382408
  H      -2.473081      2.437949     -0.466844
  C      -3.162558     -0.910840      0.161822
  H      -2.066511      0.598996      1.211074
  H      -4.084494     -0.754909      0.720454
  H      -3.433998     -1.190684     -0.856983
  H      -2.641729     -1.750474      0.619709
  C      -0.861825      0.374973     -1.732792
  C       0.461582      0.227861     -2.272882
  H      -1.680524      0.730452     -2.352521
  C       1.583211      0.325331     -1.463710
  C       2.759073      0.038184     -2.207458
  S       0.838813     -0.142005     -3.898076
  C       2.506627     -0.219461     -3.522915
  H       1.620939      1.265453     -0.563102
  H       3.758875      0.078312     -1.800229
  H       3.221551     -0.431774     -4.303473
  H      -0.735932     -3.224476     -0.215800
  H      -0.925912     -2.405814      2.374863
  H       1.513737     -1.565216      3.141029
  O       1.610535      2.312254      0.207676
  O       0.543897      0.975466      1.636567
  C       1.057227      2.094143      1.299524
  C       1.002277      3.185549      2.326425
  H       0.936933      4.160562      1.850171
  H       1.925977      3.168076      2.908078
  H       0.172869      3.046882      3.015069
  H       3.211415     -1.910023      1.098708
  H       1.800722     -2.901727     -0.996069
39
Coordinates from ORCA-job reaction4-IEIP_ts_guess_scan_3-14_orca E -1288.395040428980
  Ir      0.584817     -0.746926      0.526446
  C       0.070485     -2.836873      0.390556
  C      -0.046486     -2.370303      1.749392
  C       2.154975     -2.130381      1.095594
  C       1.407605     -2.668208     -0.016669
  C       1.262587     -1.980132      2.175885
  N      -1.035947      0.112438     -0.491412
  C      -2.325734      0.361771      0.177155
  C      -3.094270      1.541630     -0.400678
  H      -3.932647      1.772072      0.255241
  H      -3.518302      1.332475     -1.383640
  H      -2.476525      2.437301     -0.468482
  C      -3.163178     -0.911678      0.162288
  H      -2.067925      0.599879      1.210140
  H      -4.084861     -0.756107      0.721450
  H      -3.435040     -1.192202     -0.856209
  H      -2.641534     -1.750772      0.620202
  C      -0.863317      0.375322     -1.733531
  C       0.460286      0.228159     -2.273252
  H      -1.681719      0.731067     -2.353480
  C       1.581909      0.326102     -1.464126
  C       2.757788      0.038457     -2.207707
  S       0.837507     -0.143437     -3.898055
  C       2.505432     -0.219909     -3.523046
  H       1.621131      1.265991     -0.564144
  H       3.757536      0.079084     -1.800391
  H       3.220188     -0.432440     -4.303699
  H      -0.731485     -3.225977     -0.219879
  H      -0.929277     -2.407436      2.370332
  H       1.506997     -1.562909      3.142578
  O       1.615558      2.310826      0.209347
  O       0.542048      0.976496      1.635359
  C       1.060146      2.093674      1.300244
  C       1.008010      3.184410      2.328014
  H       0.939936      4.159432      1.852084
  H       1.934059      3.167830      2.905921
  H       0.181324      3.044994      3.019724
  H       3.210633     -1.905657      1.104877
  H       1.806661     -2.898876     -0.993693
39
Coordinates from ORCA-job reaction4-IEIP_ts_guess_scan_3-14_orca E -1288.395042238220
  Ir      0.583857     -0.746684      0.526260
  C       0.071322     -2.837028      0.389625
  C      -0.047220     -2.370738      1.748461
  C       2.154635     -2.128896      1.096717
  C       1.408703     -2.667244     -0.016251
  C       1.261171     -1.979530      2.176195
  N      -1.036739      0.112727     -0.491910
  C      -2.326456      0.362045      0.176703
  C      -3.095770      1.540921     -0.402130
  H      -3.934133      1.771442      0.253789
  H      -3.519895      1.330630     -1.384807
  H      -2.478591      2.436914     -0.470817
  C      -3.163253     -0.911830      0.163151
  H      -2.068518      0.601394      1.209364
  H      -4.085074     -0.756100      0.722049
  H      -3.434895     -1.193535     -0.855078
  H      -2.641319     -1.750235      0.621968
  C      -0.864045      0.375473     -1.734119
  C       0.459693      0.228291     -2.273482
  H      -1.682330      0.731050     -2.354291
  C       1.581163      0.326345     -1.464205
  C       2.757273      0.038701     -2.207352
  S       0.837455     -0.144120     -3.898118
  C       2.505208     -0.219836     -3.522769
  H       1.620746      1.266116     -0.564614
  H       3.756921      0.079740     -1.799846
  H       3.220069     -0.432224     -4.303371
  H      -0.729714     -3.226827     -0.221592
  H      -0.930607     -2.408348      2.368519
  H       1.504422     -1.562151      3.143113
  O       1.617206      2.310194      0.209911
  O       0.540727      0.976993      1.634845
  C       1.061303      2.093504      1.300574
  C       1.011068      3.183537      2.329136
  H       0.940136      4.158602      1.853646
  H       1.939114      3.168029      2.903839
  H       0.186792      3.042906      3.023427
  H       3.210147     -1.903539      1.107155
  H       1.808795     -2.897499     -0.992953
