39
Coordinates from ORCA-job reaction4-IEIP_ts_guess_scan_14-8_orca E -1288.397546016105
  Ir      0.622601     -0.729373      0.385496
  C       0.175290     -2.850478      0.304523
  C      -0.080423     -2.419676      1.655759
  C       2.154826     -2.047692      1.185031
  C       1.548944     -2.649416      0.033177
  C       1.137656     -1.943295      2.181891
  N      -1.079612      0.117146     -0.513480
  C      -2.343809      0.304093      0.212799
  C      -3.137821      1.520935     -0.240188
  H      -3.964050      1.679044      0.451103
  H      -3.579316      1.395893     -1.229841
  H      -2.531136      2.426798     -0.238142
  C      -3.172423     -0.972303      0.114988
  H      -2.052907      0.456746      1.253253
  H      -4.069294     -0.881004      0.726368
  H      -3.486440     -1.158581     -0.912829
  H      -2.622858     -1.844643      0.464925
  C      -0.937902      0.487730     -1.728527
  C       0.377531      0.301506     -2.246362
  H      -1.742641      0.935329     -2.302204
  C       1.380959      0.003081     -1.314034
  C       2.610788     -0.229482     -2.015678
  S       0.910009      0.321630     -3.853679
  C       2.499845     -0.087341     -3.364232
  H       1.597175      1.136045     -0.671940
  H       3.552705     -0.432865     -1.526614
  H       3.280079     -0.179849     -4.104491
  H      -0.539649     -3.300050     -0.368893
  H      -1.018509     -2.482614      2.185489
  H       1.266441     -1.500605      3.159456
  O       1.717921      2.323872      0.031403
  O       0.602575      1.038670      1.465755
  C       1.148068      2.132599      1.125146
  C       1.119383      3.250020      2.126485
  H       1.008731      4.210157      1.628025
  H       2.071557      3.269947      2.659522
  H       0.325877      3.112477      2.855601
  H       3.200276     -1.815809      1.316994
  H       2.048922     -2.899452     -0.891314
39
Coordinates from ORCA-job reaction4-IEIP_ts_guess_scan_14-8_orca E -1288.397550298027
  Ir      0.621548     -0.721927      0.380713
  C       0.181027     -2.846944      0.301630
  C      -0.075690     -2.419198      1.653735
  C       2.157414     -2.037804      1.183152
  C       1.554162     -2.641777      0.031094
  C       1.139573     -1.938331      2.179588
  N      -1.085254      0.117427     -0.514943
  C      -2.348310      0.305740      0.213107
  C      -3.144099      1.519873     -0.243940
  H      -3.969800      1.679922      0.447521
  H      -3.586362      1.390314     -1.232679
  H      -2.538439      2.426440     -0.246252
  C      -3.175949     -0.971749      0.122007
  H      -2.056081      0.463090      1.252543
  H      -4.072046     -0.878778      0.734284
  H      -3.491335     -1.162685     -0.904544
  H      -2.625087     -1.842114      0.474806
  C      -0.943006      0.483471     -1.736028
  C       0.374460      0.297019     -2.256827
  H      -1.748996      0.927050     -2.310973
  C       1.377827      0.004772     -1.322211
  C       2.607677     -0.232692     -2.023383
  S       0.907320      0.309970     -3.864405
  C       2.496821     -0.097944     -3.372630
  H       1.602778      1.159490     -0.702026
  H       3.549887     -0.432856     -1.533373
  H       3.277103     -0.195477     -4.112088
  H      -0.532102     -3.299150     -0.371971
  H      -1.013245     -2.486546      2.183772
  H       1.266640     -1.496315      3.157691
  O       1.777590      2.293842      0.074435
  O       0.585754      1.043883      1.469116
  C       1.161413      2.126329      1.146794
  C       1.118001      3.250300      2.139883
  H       1.046391      4.209393      1.632289
  H       2.049457      3.253941      2.708719
  H       0.294662      3.133619      2.838829
  H       3.202170     -1.803300      1.316177
  H       2.055495     -2.891107     -0.892871
39
Coordinates from ORCA-job reaction4-IEIP_ts_guess_scan_14-8_orca E -1288.396481713056
  Ir      0.630914     -0.727257      0.381639
  C       0.181885     -2.854817      0.296185
  C      -0.070837     -2.437724      1.652563
  C       2.161204     -2.058065      1.180536
  C       1.555560     -2.653778      0.025703
  C       1.144267     -1.963246      2.178401
  N      -1.073668      0.123504     -0.502982
  C      -2.335685      0.314639      0.225698
  C      -3.121939      1.537414     -0.224665
  H      -3.948326      1.698413      0.465736
  H      -3.562264      1.417720     -1.215533
  H      -2.510124      2.439849     -0.219233
  C      -3.172272     -0.956188      0.124643
  H      -2.043914      0.462765      1.266668
  H      -4.068629     -0.861316      0.736271
  H      -3.487594     -1.137747     -0.903639
  H      -2.628081     -1.832879      0.472096
  C      -0.922043      0.501188     -1.728264
  C       0.398443      0.309065     -2.255437
  H      -1.724550      0.954462     -2.300325
  C       1.395319     -0.009803     -1.321577
  C       2.621350     -0.267070     -2.025085
  S       0.933619      0.325865     -3.862867
  C       2.514373     -0.118542     -3.372990
  H       1.668188      1.165099     -0.719484
  H       3.559738     -0.487796     -1.536257
  H       3.293515     -0.226045     -4.112102
  H      -0.533241     -3.301350     -0.379124
  H      -1.007356     -2.506922      2.184002
  H       1.273896     -1.529024      3.159658
  O       1.577941      2.343709      0.003659
  O       0.587914      1.034099      1.490782
  C       1.082097      2.143350      1.132308
  C       1.075583      3.261134      2.132182
  H       0.908494      4.216459      1.640106
  H       2.054770      3.310796      2.611720
  H       0.328103      3.100756      2.903734
  H       3.207136     -1.829804      1.315391
  H       2.055586     -2.901722     -0.899376
39
Coordinates from ORCA-job reaction4-IEIP_ts_guess_scan_14-8_orca E -1288.397873746613
  Ir      0.621781     -0.729524      0.382728
  C       0.170443     -2.854194      0.311353
  C      -0.079122     -2.426531      1.664849
  C       2.152941     -2.053256      1.185170
  C       1.543695     -2.655832      0.035744
  C       1.138626     -1.949644      2.185109
  N      -1.082540      0.115481     -0.509817
  C      -2.346274      0.303046      0.215888
  C      -3.138050      1.520700     -0.238798
  H      -3.966110      1.679538      0.450143
  H      -3.576580      1.396079     -1.229838
  H      -2.530621      2.426064     -0.235099
  C      -3.176127     -0.972408      0.117140
  H      -2.056300      0.455324      1.256634
  H      -4.073629     -0.880368      0.727500
  H      -3.489219     -1.158327     -0.911023
  H      -2.627748     -1.845290      0.467652
  C      -0.936451      0.488293     -1.730995
  C       0.382535      0.304829     -2.253887
  H      -1.741291      0.937297     -2.303209
  C       1.381312     -0.006174     -1.320175
  C       2.614836     -0.233821     -2.019593
  S       0.920644      0.334254     -3.859673
  C       2.509273     -0.077954     -3.367080
  H       1.613763      1.154002     -0.693379
  H       3.555415     -0.439452     -1.528618
  H       3.292928     -0.163419     -4.104457
  H      -0.546941     -3.304137     -0.359225
  H      -1.014888     -2.490076      2.198437
  H       1.270952     -1.507849      3.162601
  O       1.703938      2.336156      0.023966
  O       0.603163      1.041393      1.464966
  C       1.143156      2.137457      1.123163
  C       1.117898      3.252715      2.125508
  H       0.999699      4.213254      1.629512
  H       2.073901      3.275336      2.651516
  H       0.330247      3.110199      2.859846
  H       3.199256     -1.824341      1.315421
  H       2.040859     -2.909629     -0.889239
39
Coordinates from ORCA-job reaction4-IEIP_ts_guess_scan_14-8_orca E -1288.397918924164
  Ir      0.621087     -0.727743      0.382391
  C       0.169871     -2.851690      0.312980
  C      -0.080624     -2.424364      1.666232
  C       2.151496     -2.050336      1.187704
  C       1.543383     -2.653424      0.038242
  C       1.136549     -1.947121      2.187006
  N      -1.082509      0.115382     -0.511666
  C      -2.346493      0.301542      0.213780
  C      -3.141047      1.517210     -0.241507
  H      -3.969152      1.674976      0.447626
  H      -3.579761      1.390808     -1.232207
  H      -2.535428      2.423786     -0.238858
  C      -3.173923     -0.975685      0.117303
  H      -2.056243      0.455501      1.254272
  H      -4.071356     -0.884549      0.727917
  H      -3.486981     -1.163733     -0.910467
  H      -2.623570     -1.846894      0.468934
  C      -0.937756      0.488366     -1.731311
  C       0.379821      0.305929     -2.254759
  H      -1.743383      0.937097     -2.302563
  C       1.378954     -0.006617     -1.322195
  C       2.611866     -0.233382     -2.022214
  S       0.919220      0.347870     -3.859776
  C       2.505423     -0.075585     -3.369472
  H       1.612871      1.158831     -0.704432
  H       3.551879     -0.443794     -1.532336
  H       3.288180     -0.162760     -4.107631
  H      -0.546977     -3.301900     -0.357974
  H      -1.016909     -2.487615      2.198983
  H       1.268218     -1.504914      3.164397
  O       1.729287      2.324075      0.036417
  O       0.600778      1.042705      1.463802
  C       1.149258      2.134763      1.127040
  C       1.121560      3.252404      2.127206
  H       1.018346      4.213136      1.628258
  H       2.071033      3.267426      2.665260
  H       0.323494      3.118408      2.851866
  H       3.197679     -1.821330      1.318781
  H       2.041230     -2.907586     -0.886289
39
Coordinates from ORCA-job reaction4-IEIP_ts_guess_scan_14-8_orca E -1288.397962928913
  Ir      0.620110     -0.729706      0.383004
  C       0.165696     -2.852735      0.317910
  C      -0.083116     -2.425217      1.671399
  C       2.148762     -2.053462      1.190365
  C       1.539407     -2.656665      0.041861
  C       1.134595     -1.948884      2.190575
  N      -1.082817      0.114604     -0.511635
  C      -2.347555      0.298954      0.213120
  C      -3.143095      1.514432     -0.240977
  H      -3.971725      1.670466      0.447887
  H      -3.581172      1.388868     -1.232065
  H      -2.538369      2.421608     -0.236810
  C      -3.174071     -0.978772      0.115074
  H      -2.058019      0.452012      1.253992
  H      -4.071999     -0.888768      0.725120
  H      -3.486222     -1.166196     -0.913091
  H      -2.623346     -1.849816      0.466419
  C      -0.937508      0.490146     -1.730421
  C       0.379532      0.307777     -2.254761
  H      -1.743311      0.939593     -2.300861
  C       1.377409     -0.011556     -1.323090
  C       2.611658     -0.232641     -2.022507
  S       0.920421      0.356829     -3.859132
  C       2.507906     -0.060864     -3.368360
  H       1.614395      1.159873     -0.711075
  H       3.550925     -0.446248     -1.532649
  H       3.292537     -0.139221     -4.105536
  H      -0.552185     -3.302612     -0.352182
  H      -1.019182     -2.486812      2.204701
  H       1.267653     -1.506145      3.167534
  O       1.734718      2.322722      0.032907
  O       0.605187      1.043415      1.461242
  C       1.156675      2.133409      1.124972
  C       1.126818      3.253923      2.121976
  H       1.023982      4.213379      1.620500
  H       2.075405      3.270666      2.661508
  H       0.327626      3.121415      2.845684
  H       3.195364     -1.826059      1.320882
  H       2.036279     -2.912524     -0.882740
39
Coordinates from ORCA-job reaction4-IEIP_ts_guess_scan_14-8_orca E -1288.398041180826
  Ir      0.616881     -0.734493      0.384220
  C       0.157012     -2.855491      0.329990
  C      -0.089352     -2.427131      1.683743
  C       2.141994     -2.058621      1.198404
  C       1.531300     -2.663405      0.051928
  C       1.128693     -1.951305      2.199982
  N      -1.084437      0.111306     -0.512244
  C      -2.350923      0.291077      0.211002
  C      -3.148692      1.506137     -0.240209
  H      -3.978532      1.657922      0.448079
  H      -3.585273      1.382752     -1.232249
  H      -2.546085      2.414717     -0.232269
  C      -3.175072     -0.987846      0.108642
  H      -2.063213      0.441813      1.252812
  H      -4.074344     -0.900631      0.717076
  H      -3.484767     -1.173576     -0.920584
  H      -2.623599     -1.858605      0.459306
  C      -0.937163      0.495023     -1.728503
  C       0.379985      0.316238     -2.253666
  H      -1.742722      0.948187     -2.296359
  C       1.374020     -0.021949     -1.324295
  C       2.611491     -0.230194     -2.022125
  S       0.928665      0.398062     -3.854192
  C       2.513063     -0.031746     -3.364980
  H       1.618597      1.162097     -0.723285
  H       3.548036     -0.456686     -1.532938
  H       3.300733     -0.096753     -4.100238
  H      -0.562286     -3.305673     -0.338433
  H      -1.025327     -2.485443      2.217502
  H       1.263780     -1.506635      3.175769
  O       1.734679      2.328229      0.016218
  O       0.614095      1.046535      1.452050
  C       1.163662      2.135431      1.112608
  C       1.143673      3.255945      2.109997
  H       1.038585      4.215785      1.609840
  H       2.096320      3.270838      2.642422
  H       0.349763      3.124280      2.839650
  H       3.189231     -1.833803      1.328345
  H       2.026901     -2.923202     -0.872277
39
Coordinates from ORCA-job reaction4-IEIP_ts_guess_scan_14-8_orca E -1288.398055211386
  Ir      0.616278     -0.737068      0.383968
  C       0.155589     -2.856870      0.331994
  C      -0.092427     -2.428375      1.685481
  C       2.139491     -2.059793      1.202716
  C       1.530595     -2.665609      0.055925
  C       1.124749     -1.952163      2.203083
  N      -1.083920      0.109859     -0.512656
  C      -2.349994      0.289566      0.211242
  C      -3.148017      1.504583     -0.239496
  H      -3.977401      1.656167      0.449396
  H      -3.585232      1.381307     -1.231283
  H      -2.545481      2.413209     -0.231761
  C      -3.174005     -0.989407      0.109208
  H      -2.061669      0.440411      1.252867
  H      -4.073288     -0.901949      0.717588
  H      -3.483639     -1.175410     -0.919975
  H      -2.622594     -1.860129      0.460149
  C      -0.936841      0.496384     -1.727705
  C       0.380063      0.318100     -2.253112
  H      -1.742123      0.951550     -2.294313
  C       1.373328     -0.025372     -1.324939
  C       2.611338     -0.229883     -2.022863
  S       0.930700      0.411111     -3.852354
  C       2.514150     -0.022637     -3.364644
  H       1.619703      1.163440     -0.730285
  H       3.547074     -0.461370     -1.534500
  H       3.302453     -0.083237     -4.099610
  H      -0.562761     -3.307496     -0.337152
  H      -1.029362     -2.485960      2.217637
  H       1.258648     -1.506843      3.178719
  O       1.731817      2.329551      0.009863
  O       0.615356      1.046144      1.447766
  C       1.162363      2.135635      1.107203
  C       1.145991      3.255224      2.105772
  H       1.039860      4.215595      1.606866
  H       2.100236      3.269045      2.635361
  H       0.354245      3.123244      2.837733
  H       3.186570     -1.835077      1.334162
  H       2.027525     -2.926290     -0.867311
39
Coordinates from ORCA-job reaction4-IEIP_ts_guess_scan_14-8_orca E -1288.398063007015
  Ir      0.616552     -0.739332      0.383626
  C       0.156274     -2.858440      0.331954
  C      -0.094483     -2.429754      1.685020
  C       2.138233     -2.060384      1.206587
  C       1.532030     -2.667191      0.058899
  C       1.121345     -1.952918      2.205059
  N      -1.083646      0.109176     -0.512522
  C      -2.349370      0.288620      0.212213
  C      -3.147256      1.504301     -0.236930
  H      -3.976165      1.655294      0.452687
  H      -3.585120      1.382250     -1.228579
  H      -2.544540      2.412806     -0.228481
  C      -3.173741     -0.989987      0.108920
  H      -2.060525      0.438438      1.253820
  H      -4.073058     -0.902702      0.717291
  H      -3.483355     -1.174888     -0.920457
  H      -2.622804     -1.861324      0.459028
  C      -0.936642      0.498302     -1.726627
  C       0.380280      0.319793     -2.252172
  H      -1.741375      0.955478     -2.292329
  C       1.373426     -0.026863     -1.325037
  C       2.611240     -0.230165     -2.023703
  S       0.931686      0.419974     -3.850679
  C       2.513941     -0.019564     -3.365063
  H       1.620349      1.164467     -0.734775
  H       3.546606     -0.465236     -1.536342
  H       3.301987     -0.079192     -4.100378
  H      -0.560452     -3.309854     -0.338396
  H      -1.032613     -2.487274      2.215073
  H       1.253161     -1.507287      3.180820
  O       1.731167      2.330491      0.005704
  O       0.617112      1.045868      1.444733
  C       1.163357      2.135619      1.103833
  C       1.145991      3.255418      2.102127
  H       1.038770      4.215582      1.603029
  H       2.100390      3.270145      2.631396
  H       0.354632      3.122877      2.834411
  H       3.184955     -1.835235      1.340138
  H       2.031033     -2.928118     -0.863157
39
Coordinates from ORCA-job reaction4-IEIP_ts_guess_scan_14-8_orca E -1288.398067720267
  Ir      0.617051     -0.741138      0.383211
  C       0.158600     -2.859993      0.330775
  C      -0.096681     -2.430854      1.683062
  C       2.137139     -2.059638      1.211552
  C       1.535274     -2.667922      0.062389
  C       1.116867     -1.952794      2.206987
  N      -1.083707      0.108954     -0.512105
  C      -2.349161      0.287755      0.213402
  C      -3.146796      1.504410     -0.233521
  H      -3.975386      1.654384      0.456725
  H      -3.585070      1.384261     -1.225215
  H      -2.543905      2.412791     -0.223606
  C      -3.173879     -0.990417      0.107712
  H      -2.059942      0.435845      1.255122
  H      -4.073287     -0.903893      0.716080
  H      -3.483416     -1.173311     -0.922039
  H      -2.623420     -1.862689      0.456179
  C      -0.936831      0.500250     -1.725517
  C       0.380151      0.320800     -2.251319
  H      -1.740989      0.959038     -2.290682
  C       1.373628     -0.027299     -1.325011
  C       2.610840     -0.230822     -2.024812
  S       0.930637      0.421854     -3.850003
  C       2.513084     -0.018141     -3.365854
  H       1.619979      1.165612     -0.738933
  H       3.546307     -0.467387     -1.538354
  H       3.300780     -0.076837     -4.101610
  H      -0.555403     -3.312927     -0.341437
  H      -1.036525     -2.488878      2.210019
  H       1.245154     -1.506856      3.183064
  O       1.729463      2.331882      0.001359
  O       0.618518      1.046025      1.441851
  C       1.162470      2.136694      1.099799
  C       1.147334      3.255292      2.099435
  H       1.039651      4.216061      1.601606
  H       2.102725      3.268888      2.626981
  H       0.357312      3.122310      2.833066
  H       3.183211     -1.833373      1.348289
  H       2.037594     -2.928745     -0.857904
39
Coordinates from ORCA-job reaction4-IEIP_ts_guess_scan_14-8_orca E -1288.398069499961
  Ir      0.617721     -0.741392      0.382908
  C       0.161441     -2.860583      0.328636
  C      -0.097826     -2.431486      1.680323
  C       2.136776     -2.058164      1.214854
  C       1.538723     -2.667278      0.064252
  C       1.113590     -1.952443      2.207703
  N      -1.083615      0.109437     -0.511245
  C      -2.348903      0.287537      0.214590
  C      -3.146096      1.505197     -0.230341
  H      -3.974743      1.654223      0.460041
  H      -3.584219      1.386946     -1.222332
  H      -2.542953      2.413389     -0.218703
  C      -3.173916     -0.990251      0.106440
  H      -2.059559      0.433769      1.256533
  H      -4.073249     -0.904824      0.715076
  H      -3.483625     -1.170929     -0.923652
  H      -2.623596     -1.863424      0.452902
  C      -0.937062      0.501406     -1.724498
  C       0.379874      0.321521     -2.250873
  H      -1.741028      0.961028     -2.289283
  C       1.373896     -0.026415     -1.325017
  C       2.610156     -0.232059     -2.026055
  S       0.928620      0.420031     -3.850211
  C       2.511294     -0.020876     -3.367176
  H       1.619773      1.166292     -0.740284
  H       3.546002     -0.468536     -1.540270
  H       3.298193     -0.081191     -4.103650
  H      -0.550132     -3.314800     -0.345265
  H      -1.039047     -2.490403      2.204733
  H       1.238685     -1.506642      3.184251
  O       1.729714      2.332456      0.000106
  O       0.619829      1.045966      1.440834
  C       1.163637      2.136818      1.098805
  C       1.147032      3.255444      2.098370
  H       1.039190      4.216179      1.600502
  H       2.102047      3.269531      2.626595
  H       0.356583      3.122008      2.831445
  H       3.182250     -1.830814      1.354346
  H       2.043910     -2.927479     -0.854650
39
Coordinates from ORCA-job reaction4-IEIP_ts_guess_scan_14-8_orca E -1288.398071421728
  Ir      0.618476     -0.741006      0.382786
  C       0.165892     -2.861134      0.325951
  C      -0.098873     -2.432677      1.676952
  C       2.136540     -2.055469      1.219619
  C       1.543876     -2.665638      0.067014
  C       1.109391     -1.951981      2.209023
  N      -1.083894      0.109868     -0.510205
  C      -2.349238      0.286894      0.215654
  C      -3.145443      1.506317     -0.226150
  H      -3.974448      1.653920      0.464095
  H      -3.582953      1.391253     -1.218783
  H      -2.541686      2.414053     -0.211505
  C      -3.174990     -0.990121      0.103565
  H      -2.060087      0.429986      1.258095
  H      -4.074062     -0.906450      0.712827
  H      -3.485181     -1.167080     -0.927036
  H      -2.624861     -1.864761      0.446614
  C      -0.937827      0.501841     -1.723527
  C       0.378891      0.321831     -2.250874
  H      -1.741897      0.961822     -2.287912
  C       1.373603     -0.025415     -1.325345
  C       2.608837     -0.233548     -2.027762
  S       0.925315      0.416150     -3.851124
  C       2.508598     -0.024790     -3.368992
  H       1.618888      1.167127     -0.741538
  H       3.545290     -0.468939     -1.542593
  H       3.294593     -0.087118     -4.106266
  H      -0.542220     -3.317254     -0.350288
  H      -1.041914     -2.493206      2.197917
  H       1.229975     -1.506500      3.186283
  O       1.729683      2.333299     -0.001288
  O       0.621718      1.046421      1.440446
  C       1.165111      2.137376      1.098024
  C       1.148374      3.256004      2.097625
  H       1.040794      4.216853      1.599935
  H       2.103238      3.269936      2.626143
  H       0.357721      3.122485      2.830466
  H       3.181141     -1.826474      1.362932
  H       2.053000     -2.924689     -0.850038
39
Coordinates from ORCA-job reaction4-IEIP_ts_guess_scan_14-8_orca E -1288.398073583492
  Ir      0.618938     -0.740577      0.382749
  C       0.170312     -2.861546      0.323353
  C      -0.100249     -2.434372      1.673765
  C       2.135928     -2.052578      1.225047
  C       1.549049     -2.663692      0.070265
  C       1.104631     -1.951872      2.210864
  N      -1.084106      0.109770     -0.509400
  C      -2.349420      0.285986      0.216603
  C      -3.144306      1.507450     -0.221858
  H      -3.973523      1.653867      0.468372
  H      -3.581410      1.395814     -1.215063
  H      -2.539572      2.414479     -0.204270
  C      -3.176204     -0.990061      0.100793
  H      -2.060357      0.425789      1.259521
  H      -4.074682     -0.908060      0.711147
  H      -3.487406     -1.163131     -0.930173
  H      -2.626179     -1.866268      0.440068
  C      -0.938791      0.501279     -1.722918
  C       0.377536      0.321446     -2.251337
  H      -1.743280      0.961177     -2.286826
  C       1.372758     -0.025388     -1.326128
  C       2.607392     -0.234744     -2.029474
  S       0.922394      0.413663     -3.852145
  C       2.506203     -0.027223     -3.370691
  H       1.617657      1.167685     -0.743258
  H       3.544281     -0.469374     -1.544758
  H       3.291592     -0.090565     -4.108525
  H      -0.534108     -3.319481     -0.355491
  H      -1.045278     -2.496586      2.190936
  H       1.220423     -1.506780      3.188874
  O       1.728671      2.334122     -0.003457
  O       0.623559      1.046854      1.440083
  C       1.166108      2.137883      1.096843
  C       1.150404      3.256585      2.096435
  H       1.043183      4.217564      1.598946
  H       2.105413      3.269968      2.624711
  H       0.359912      3.123332      2.829512
  H       3.179580     -1.821882      1.372498
  H       2.062318     -2.921339     -0.844871
39
Coordinates from ORCA-job reaction4-IEIP_ts_guess_scan_14-8_orca E -1288.398077826539
  Ir      0.619559     -0.740245      0.382847
  C       0.177876     -2.862335      0.319093
  C      -0.102645     -2.437945      1.668601
  C       2.134757     -2.047845      1.234827
  C       1.557927     -2.660361      0.076197
  C       1.096390     -1.952296      2.214479
  N      -1.084450      0.108770     -0.508306
  C      -2.349539      0.284148      0.218273
  C      -3.141461      1.509629     -0.214192
  H      -3.970706      1.654520      0.476318
  H      -3.578314      1.404264     -1.208195
  H      -2.534402      2.414982     -0.191735
  C      -3.178819     -0.989730      0.096198
  H      -2.060452      0.418116      1.261942
  H      -4.075957     -0.910166      0.708825
  H      -3.492296     -1.155856     -0.935234
  H      -2.629303     -1.868909      0.428661
  C      -0.940707      0.499160     -1.722290
  C       0.374867      0.319638     -2.252435
  H      -1.746187      0.958355     -2.285419
  C       1.370855     -0.026727     -1.327838
  C       2.605000     -0.236291     -2.032186
  S       0.918145      0.411172     -3.853737
  C       2.502671     -0.029397     -3.373288
  H       1.615161      1.167895     -0.746576
  H       3.542410     -0.470164     -1.548092
  H       3.287395     -0.093018     -4.111805
  H      -0.520141     -3.323122     -0.364388
  H      -1.051174     -2.502975      2.179010
  H       1.203926     -1.507935      3.193749
  O       1.725848      2.335171     -0.008051
  O       0.626459      1.047493      1.439502
  C       1.166979      2.138694      1.094215
  C       1.153912      3.257761      2.093504
  H       1.047433      4.218839      1.596099
  H       2.109380      3.269926      2.620982
  H       0.363961      3.125489      2.827374
  H       3.176714     -1.814227      1.389493
  H       2.078298     -2.915286     -0.835687
39
Coordinates from ORCA-job reaction4-IEIP_ts_guess_scan_14-8_orca E -1288.398081636377
  Ir      0.620099     -0.740347      0.383037
  C       0.184870     -2.863064      0.315039
  C      -0.104927     -2.441646      1.663731
  C       2.133572     -2.043805      1.244161
  C       1.566171     -2.657298      0.081792
  C       1.088680     -1.953199      2.217966
  N      -1.084597      0.107135     -0.507394
  C      -2.349236      0.282270      0.220162
  C      -3.137674      1.512079     -0.206292
  H      -3.966508      1.656052      0.484914
  H      -3.574873      1.413065     -1.200797
  H      -2.527778      2.415389     -0.179471
  C      -3.181574     -0.989036      0.092192
  H      -2.059871      0.410514      1.264437
  H      -4.077179     -0.911374      0.707299
  H      -3.497682     -1.148293     -0.939525
  H      -2.632928     -1.871341      0.417888
  C      -0.942630      0.496104     -1.722018
  C       0.372235      0.316711     -2.253595
  H      -1.749268      0.954009     -2.284565
  C       1.368970     -0.029191     -1.329695
  C       2.603052     -0.237354     -2.034494
  S       0.914913      0.409804     -3.855048
  C       2.499962     -0.029933     -3.375468
  H       1.612770      1.167081     -0.749705
  H       3.540796     -0.470912     -1.550887
  H       3.284346     -0.092593     -4.114428
  H      -0.507157     -3.326147     -0.372937
  H      -1.056809     -2.509089      2.167577
  H       1.188544     -1.509647      3.198399
  O       1.722537      2.335530     -0.012900
  O       0.628717      1.047893      1.438952
  C       1.166945      2.139308      1.091217
  C       1.156298      3.259084      2.089747
  H       1.050826      4.220031      1.591926
  H       2.112062      3.270036      2.616719
  H       0.366669      3.128273      2.824255
  H       3.173897     -1.807538      1.405651
  H       2.093130     -2.909370     -0.827100
39
Coordinates from ORCA-job reaction4-IEIP_ts_guess_scan_14-8_orca E -1288.398083968809
  Ir      0.620599     -0.740769      0.383264
  C       0.189433     -2.863573      0.312311
  C      -0.106240     -2.444150      1.660465
  C       2.132971     -2.041666      1.250200
  C       1.571562     -2.655472      0.085290
  C       1.083979     -1.954122      2.220148
  N      -1.084531      0.105516     -0.506701
  C      -2.348683      0.280899      0.221838
  C      -3.134050      1.514220     -0.200142
  H      -3.962251      1.657993      0.491891
  H      -3.571922      1.420041     -1.194817
  H      -2.521637      2.415718     -0.170391
  C      -3.183795     -0.988117      0.089546
  H      -2.058960      0.404922      1.266477
  H      -4.078273     -0.911392      0.706424
  H      -3.501899     -1.142268     -0.942328
  H      -2.636281     -1.872946      0.410369
  C      -0.943958      0.493225     -1.721950
  C       0.370504      0.313715     -2.254273
  H      -1.751517      0.949702     -2.284328
  C       1.367917     -0.031688     -1.331006
  C       2.602142     -0.237789     -2.035854
  S       0.913254      0.409099     -3.855708
  C       2.498570     -0.029442     -3.376774
  H       1.611512      1.165502     -0.751468
  H       3.540082     -0.471260     -1.552593
  H       3.282860     -0.090651     -4.115956
  H      -0.498812     -3.327810     -0.378656
  H      -1.060334     -2.512884      2.159965
  H       1.179038     -1.511251      3.201353
  O       1.720326      2.335005     -0.016195
  O       0.629691      1.047994      1.438624
  C       1.166267      2.139575      1.088900
  C       1.156420      3.260279      2.086350
  H       1.052169      4.220870      1.587617
  H       2.111925      3.270477      2.613815
  H       0.366381      3.130978      2.820699
  H       3.172237     -1.803796      1.416084
  H       2.102674     -2.905494     -0.821749
39
Coordinates from ORCA-job reaction4-IEIP_ts_guess_scan_14-8_orca E -1288.398084345107
  Ir      0.620946     -0.741089      0.383411
  C       0.190597     -2.863721      0.311508
  C      -0.106483     -2.444656      1.659479
  C       2.133013     -2.041555      1.251687
  C       1.572981     -2.655208      0.086042
  C       1.083031     -1.954491      2.220572
  N      -1.084326      0.104801     -0.506289
  C      -2.348242      0.280396      0.222711
  C      -3.132209      1.515232     -0.197492
  H      -3.960010      1.659125      0.495016
  H      -3.570528      1.423027     -1.192152
  H      -2.518653      2.415912     -0.166695
  C      -3.184617     -0.987566      0.088606
  H      -2.058330      0.402748      1.267464
  H      -4.078793     -0.911005      0.705957
  H      -3.503325     -1.139727     -0.943373
  H      -2.637840     -1.873493      0.407712
  C      -0.944292      0.491915     -1.721861
  C       0.370109      0.312250     -2.254257
  H      -1.752189      0.947603     -2.284379
  C       1.367930     -0.032826     -1.331343
  C       2.602189     -0.237786     -2.036204
  S       0.912938      0.408698     -3.855726
  C       2.498310     -0.029003     -3.377149
  H       1.611731      1.164282     -0.751556
  H       3.540251     -0.471186     -1.553158
  H       3.282583     -0.089443     -4.116415
  H      -0.496792     -3.328001     -0.380279
  H      -1.061185     -2.513439      2.157829
  H       1.177029     -1.511951      3.202026
  O       1.720228      2.334232     -0.016948
  O       0.629559      1.047962      1.438486
  C       1.165766      2.139570      1.088042
  C       1.155062      3.260940      2.084691
  H       1.051920      4.221221      1.585140
  H       2.109864      3.270926      2.613441
  H       0.364032      3.132549      2.818131
  H       3.172043     -1.803407      1.418645
  H       2.105072     -2.904646     -0.820582
