39
Generated by autodE on: 2023-08-13. E = -1288.400191 Ha
Ir    0.62910  -0.70719   0.41484
C     0.10308  -2.81478   0.33866
C     0.07449  -2.35272   1.70025
C     2.22356  -2.09496   0.89525
C     1.40927  -2.64767  -0.16128
C     1.40112  -1.94411   2.03287
N    -1.04531   0.14930  -0.52753
C    -2.30538   0.43331   0.17589
C    -3.09259   1.58691  -0.42660
H    -3.91133   1.84345   0.24423
H    -3.54539   1.33536  -1.38668
H    -2.47886   2.47972  -0.54839
C    -3.13992  -0.84028   0.25240
H    -2.00244   0.71236   1.18593
H    -4.03904  -0.65509   0.83828
H    -3.45027  -1.17020  -0.73985
H    -2.59879  -1.65396   0.73298
C    -0.88680   0.39600  -1.77287
C     0.44659   0.18463  -2.27205
H    -1.68673   0.77786  -2.39957
C     1.51486   0.25200  -1.37358
C     2.73258  -0.09040  -2.03938
S     0.91025  -0.28150  -3.83360
C     2.55522  -0.39870  -3.35089
H     1.52246   1.21560  -0.66498
H     3.70478  -0.05393  -1.56980
H     3.30667  -0.66554  -4.07843
H    -0.73711  -3.20851  -0.21506
H    -0.76735  -2.38584   2.37534
H     1.70691  -1.51886   2.97823
O     1.39434   2.44865   0.17951
O     0.54476   0.95850   1.60111
C     0.95033   2.13791   1.28550
C     0.88035   3.15029   2.39464
H     0.85136   4.16027   1.99499
H     1.77632   3.06112   3.01193
H     0.02279   2.97917   3.04170
H     3.27921  -1.87652   0.84201
H     1.74628  -2.90245  -1.15527
