! Opt PBEh-3c
%geom Constraints
{ B 0 20 2.3857142857142857 C }
{ B 24 30 1.3142857142857143 C }
    end
end
%output 
xyzfile=True 
end 
%scf 
maxiter 250 
end
%output
Print[P_Hirshfeld] = 1
end
% maxcore
4000
*xyz 1 1
Ir   0.59404863  -0.74032495   0.50499425 
C    0.07815633  -2.83239922   0.37231413 
C   -0.02168759  -2.37023316   1.73369292 
C    2.17031559  -2.12497835   1.05124905 
C    1.40962574  -2.66224826  -0.05238145 
C    1.29168766  -1.97863808   2.14370458 
N   -1.03739580   0.12056282  -0.49739189 
C   -2.32031757   0.37989500   0.17911259 
C   -3.09125655   1.55442202  -0.40577002 
H   -3.92506106   1.79253511   0.25325444 
H   -3.52188656   1.33525089  -1.38367395 
H   -2.47303332   2.44869178  -0.48662825 
C   -3.15914976  -0.89276068   0.18621567 
H   -2.05202650   0.62822393   1.20696427 
H   -4.07534014  -0.72899312   0.75194332 
H   -3.44069102  -1.18478516  -0.82637629 
H   -2.63413819  -1.72671168   0.64963513 
C   -0.86812926   0.37573732  -1.74105615 
C    0.45879091   0.21487725  -2.27153943 
H   -1.68296934   0.73430985  -2.36373075 
C    1.56988935   0.32509933  -1.44707264 
C    2.75599023   0.01985086  -2.16944538 
S    0.85636434  -0.19718584  -3.87888900 
C    2.52046106  -0.26912671  -3.48054102 
H    1.58680689   1.27054594  -0.58908407 
H    3.75006841   0.06966700  -1.74949464 
H    3.24405746  -0.50088341  -4.24743143 
H   -0.73160572  -3.22081474  -0.22827634 
H   -0.89682152  -2.40864105   2.36522730 
H    1.54819734  -1.56292234   3.10789362 
O    1.54574658   2.34437797   0.19213348 
O    0.54720726   0.96884656   1.63294298 
C    1.02984841   2.10349502   1.29468808 
C    0.97989657   3.17668113   2.34178773 
H    0.92001834   4.16066232   1.88400218 
H    1.90178847   3.14169007   2.92556694 
H    0.14915123   3.02975753   3.02743918 
H    3.22615131  -1.90093553   1.04888168 
H    1.79661178  -2.89340738  -1.03412072 
*
