39
Generated by autodE on: 2023-08-14. E = -1288.397174 Ha
Ir    0.59426  -0.73329   0.49199
C     0.05931  -2.82232   0.37498
C     0.02305  -2.36057   1.73936
C     2.18267  -2.13087   0.96050
C     1.37009  -2.65933  -0.11106
C     1.35809  -1.98159   2.09253
N    -1.03830   0.13230  -0.50546
C    -2.31819   0.40989   0.16859
C    -3.09736   1.55864  -0.45398
H    -3.92860   1.81718   0.20057
H    -3.53265   1.30162  -1.42065
H    -2.48373   2.45218  -0.57047
C    -3.15055  -0.86563   0.22910
H    -2.04310   0.69480   1.18518
H    -4.06716  -0.68120   0.78760
H    -3.43118  -1.20216  -0.76983
H    -2.62184  -1.67549   0.72951
C    -0.86245   0.37165  -1.75051
C     0.47138   0.19807  -2.26463
H    -1.67023   0.72669  -2.38414
C     1.57584   0.36499  -1.43888
C     2.77080   0.03342  -2.13641
S     0.88494  -0.30022  -3.84220
C     2.54825  -0.33274  -3.42924
H     1.55825   1.29377  -0.60489
H     3.76094   0.11907  -1.71292
H     3.27947  -0.60004  -4.17711
H    -0.78040  -3.20168  -0.18931
H    -0.82417  -2.39344   2.40823
H     1.66123  -1.57149   3.04541
O     1.47091   2.37988   0.20417
O     0.54317   0.95431   1.64431
C     0.99211   2.10849   1.31257
C     0.94154   3.15481   2.38751
H     0.90282   4.15147   1.95615
H     1.85176   3.08866   2.98679
H     0.09798   3.00203   3.05659
H     3.23789  -1.90901   0.90916
H     1.71253  -2.89365  -1.10841
