39
Coordinates from ORCA-job reaction4-IEIP_ts_guess_scan_10-5_orca E -1288.400242347415
  Ir      0.627568     -0.711562      0.420598
  C       0.114422     -2.819504      0.326998
  C       0.035044     -2.362417      1.688482
  C       2.212541     -2.090166      0.959535
  C       1.438458     -2.645742     -0.123902
  C       1.346044     -1.946087      2.067798
  N      -1.049110      0.139607     -0.521730
  C      -2.312760      0.400212      0.185347
  C      -3.098261      1.573867     -0.381060
  H      -3.918974      1.807974      0.295509
  H      -3.547985      1.354709     -1.350400
  H      -2.484227      2.470106     -0.471982
  C      -3.149169     -0.874177      0.213407
  H      -2.016503      0.646508      1.205843
  H      -4.049656     -0.711061      0.803894
  H      -3.457606     -1.165977     -0.791333
  H      -2.609894     -1.706786      0.662549
  C      -0.896778      0.405953     -1.759852
  C       0.430717      0.206077     -2.259393
  H      -1.700262      0.794149     -2.378193
  C       1.489129      0.204762     -1.349476
  C       2.706428     -0.109799     -2.028302
  S       0.901334     -0.156871     -3.847850
  C       2.537382     -0.325876     -3.360321
  H       1.523076      1.188322     -0.612045
  H       3.675870     -0.118505     -1.551621
  H       3.293262     -0.551914     -4.097066
  H      -0.702082     -3.218692     -0.257307
  H      -0.829598     -2.402996      2.333619
  H       1.615392     -1.520128      3.023958
  O       1.478424      2.398945      0.145064
  O       0.553898      0.975703      1.584921
  C       0.997986      2.131055      1.252386
  C       0.937005      3.181245      2.324637
  H       0.907853      4.177040      1.890628
  H       1.837949      3.112055      2.937183
  H       0.083226      3.033347      2.981851
  H       3.268957     -1.869972      0.945468
  H       1.810272     -2.894215     -1.107103
39
Coordinates from ORCA-job reaction4-IEIP_ts_guess_scan_10-5_orca E -1288.400120984179
  Ir      0.623460     -0.703217      0.415725
  C       0.117615     -2.815388      0.328355
  C       0.037019     -2.357798      1.689457
  C       2.212399     -2.076772      0.959739
  C       1.440926     -2.637673     -0.122669
  C       1.345020     -1.934333      2.067284
  N      -1.059826      0.137795     -0.525607
  C      -2.323410      0.397408      0.182108
  C      -3.113356      1.565626     -0.389323
  H      -3.934524      1.799940      0.286603
  H      -3.562752      1.340352     -1.357419
  H      -2.502610      2.463660     -0.484787
  C      -3.155419     -0.879651      0.217063
  H      -2.027084      0.649523      1.201169
  H      -4.055676     -0.717004      0.808025
  H      -3.464214     -1.177074     -0.785926
  H      -2.612613     -1.708320      0.669209
  C      -0.907503      0.397800     -1.769860
  C       0.423577      0.201033     -2.271795
  H      -1.712889      0.779465     -2.389734
  C       1.480591      0.206723     -1.359786
  C       2.700614     -0.105392     -2.035563
  S       0.898349     -0.165820     -3.857971
  C       2.534583     -0.327435     -3.366917
  H       1.513798      1.212294     -0.641311
  H       3.669544     -0.106834     -1.557592
  H       3.292688     -0.553227     -4.101360
  H      -0.697263     -3.219078     -0.255172
  H      -0.827092     -2.401474      2.335014
  H       1.612483     -1.505945      3.022883
  O       1.591727      2.365808      0.197823
  O       0.538027      0.985458      1.583698
  C       1.036824      2.123924      1.276415
  C       0.951657      3.181104      2.339760
  H       0.982481      4.175127      1.901743
  H       1.813088      3.083494      3.003161
  H       0.056970      3.066363      2.947183
  H       3.268199     -1.853708      0.946173
  H       1.813961     -2.887561     -1.105059
39
Coordinates from ORCA-job reaction4-IEIP_ts_guess_scan_10-5_orca E -1288.399833077516
  Ir      0.632891     -0.710115      0.416743
  C       0.114831     -2.823534      0.326056
  C       0.037507     -2.374755      1.690097
  C       2.212058     -2.097449      0.960348
  C       1.438959     -2.650726     -0.124442
  C       1.344487     -1.956072      2.067799
  N      -1.050298      0.143636     -0.513325
  C      -2.313047      0.402731      0.195896
  C      -3.096437      1.579393     -0.367185
  H      -3.918416      1.811165      0.308602
  H      -3.544045      1.364603     -1.338519
  H      -2.481775      2.475741     -0.453129
  C      -3.150943     -0.870707      0.218182
  H      -2.017212      0.644304      1.217650
  H      -4.050933     -0.709597      0.809961
  H      -3.460316     -1.157360     -0.787779
  H      -2.612102     -1.705925      0.662916
  C      -0.889896      0.417002     -1.763502
  C       0.446095      0.216791     -2.273984
  H      -1.692856      0.808791     -2.380080
  C       1.501286      0.190515     -1.358041
  C       2.718132     -0.135820     -2.034536
  S       0.920455     -0.135395     -3.863244
  C       2.552427     -0.336531     -3.368997
  H       1.570275      1.222246     -0.654840
  H       3.685764     -0.159079     -1.554180
  H       3.308829     -0.566634     -4.103700
  H      -0.701903     -3.221422     -0.258935
  H      -0.826047     -2.418711      2.336178
  H       1.613574     -1.533471      3.025502
  O       1.401348      2.402971      0.131396
  O       0.548738      0.976824      1.599872
  C       0.963857      2.136933      1.258326
  C       0.920410      3.192053      2.325303
  H       0.859523      4.184822      1.887440
  H       1.842154      3.141661      2.907913
  H       0.091366      3.032627      3.010543
  H       3.269399     -1.881886      0.949623
  H       1.811230     -2.900430     -1.107190
39
Coordinates from ORCA-job reaction4-IEIP_ts_guess_scan_10-5_orca E -1288.400534638419
  Ir      0.625641     -0.712170      0.419988
  C       0.107296     -2.822404      0.337838
  C       0.030540     -2.365399      1.699085
  C       2.206094     -2.094216      0.966526
  C       1.431382     -2.652127     -0.114806
  C       1.339604     -1.946730      2.074499
  N      -1.053063      0.137742     -0.518599
  C      -2.317602      0.393994      0.187016
  C      -3.103896      1.567333     -0.378883
  H      -3.927494      1.797798      0.295445
  H      -3.549589      1.349511     -1.350398
  H      -2.491672      2.465222     -0.465499
  C      -3.151344     -0.882252      0.210161
  H      -2.023605      0.638034      1.208661
  H      -4.052766     -0.722927      0.800275
  H      -3.458122     -1.171621     -0.795771
  H      -2.610514     -1.714944      0.657272
  C      -0.897324      0.410459     -1.760933
  C       0.434080      0.216481     -2.267008
  H      -1.701655      0.800754     -2.376628
  C       1.490266      0.195124     -1.353242
  C       2.709565     -0.114030     -2.032714
  S       0.908680     -0.125830     -3.858182
  C       2.544245     -0.305583     -3.368800
  H       1.537562      1.199113     -0.624607
  H       3.677576     -0.132118     -1.553255
  H       3.301901     -0.521007     -4.106867
  H      -0.710178     -3.222240     -0.244676
  H      -0.833157     -2.404338      2.345421
  H       1.609783     -1.518816      3.029534
  O       1.490450      2.403696      0.141928
  O       0.556141      0.981435      1.580518
  C       1.006416      2.134163      1.249290
  C       0.947414      3.185459      2.319449
  H       0.920876      4.180910      1.884446
  H       1.847694      3.114599      2.932701
  H       0.092541      3.039703      2.975545
  H       3.263265     -1.877865      0.953024
  H       1.802337     -2.905723     -1.097013
39
Coordinates from ORCA-job reaction4-IEIP_ts_guess_scan_10-5_orca E -1288.400592484822
  Ir      0.625777     -0.711946      0.419877
  C       0.108969     -2.822553      0.339573
  C       0.030347     -2.365563      1.700544
  C       2.206419     -2.092486      0.970024
  C       1.433524     -2.651680     -0.111728
  C       1.338315     -1.945261      2.076841
  N      -1.053352      0.136519     -0.520053
  C      -2.317884      0.393066      0.185802
  C      -3.104836      1.566269     -0.379594
  H      -3.927999      1.796655      0.295270
  H      -3.551251      1.348305     -1.350725
  H      -2.492835      2.464269     -0.466710
  C      -3.151969     -0.882991      0.210015
  H      -2.023465      0.637429      1.207343
  H      -4.053107     -0.723191      0.800456
  H      -3.459228     -1.172738     -0.795658
  H      -2.611159     -1.715548      0.657283
  C      -0.898067      0.409683     -1.762149
  C       0.432521      0.216325     -2.269446
  H      -1.702821      0.800233     -2.377059
  C       1.488609      0.192204     -1.355831
  C       2.707645     -0.114792     -2.036458
  S       0.907527     -0.114682     -3.862708
  C       2.541809     -0.303930     -3.372845
  H       1.538826      1.202545     -0.634655
  H       3.675560     -0.136069     -1.556990
  H       3.298999     -0.519207     -4.111399
  H      -0.707456     -3.223345     -0.243732
  H      -0.834115     -2.404650      2.345832
  H       1.607062     -1.516482      3.031903
  O       1.506866      2.395687      0.150333
  O       0.552297      0.982538      1.580584
  C       1.009217      2.132501      1.253073
  C       0.948088      3.185927      2.321374
  H       0.931019      4.180917      1.884843
  H       1.843048      3.110614      2.941892
  H       0.087182      3.046277      2.970900
  H       3.263536     -1.875789      0.958002
  H       1.805751     -2.905870     -1.093287
39
Coordinates from ORCA-job reaction4-IEIP_ts_guess_scan_10-5_orca E -1288.400628692809
  Ir      0.625648     -0.714895      0.421402
  C       0.106531     -2.824812      0.344845
  C       0.027059     -2.367113      1.705364
  C       2.204003     -2.096175      0.976224
  C       1.431847     -2.655967     -0.105512
  C       1.334563     -1.946967      2.081940
  N      -1.052613      0.135002     -0.520022
  C      -2.317633      0.390517      0.185690
  C      -3.104829      1.564708     -0.377423
  H      -3.928025      1.793566      0.297889
  H      -3.551297      1.348577     -1.348936
  H      -2.493057      2.463049     -0.462774
  C      -3.152071     -0.885396      0.207671
  H      -2.023620      0.633108      1.207820
  H      -4.053372     -0.726318      0.798056
  H      -3.459032     -1.173440     -0.798587
  H      -2.611616     -1.718771      0.653783
  C      -0.897015      0.411379     -1.761517
  C       0.432674      0.218494     -2.270561
  H      -1.701972      0.803608     -2.375106
  C       1.488145      0.185176     -1.356539
  C       2.707513     -0.115679     -2.039352
  S       0.907975     -0.099421     -3.866150
  C       2.542829     -0.288284     -3.378154
  H       1.542168      1.200154     -0.639020
  H       3.675096     -0.142113     -1.559498
  H       3.300576     -0.494130     -4.118808
  H      -0.709626     -3.225490     -0.238920
  H      -0.838182     -2.404316      2.349687
  H       1.602754     -1.517035      3.036651
  O       1.512210      2.392196      0.147717
  O       0.554550      0.982984      1.578885
  C       1.014369      2.130886      1.251147
  C       0.950422      3.188132      2.315680
  H       0.932723      4.181636      1.875786
  H       1.844687      3.115984      2.937547
  H       0.088827      3.049647      2.964568
  H       3.261470     -1.881171      0.965582
  H       1.804692     -2.912120     -1.086315
39
Coordinates from ORCA-job reaction4-IEIP_ts_guess_scan_10-5_orca E -1288.400678688790
  Ir      0.623912     -0.721552      0.425299
  C       0.100511     -2.829556      0.357783
  C       0.017615     -2.369260      1.716959
  C       2.197274     -2.102993      0.992871
  C       1.427979     -2.665058     -0.089237
  C       1.323703     -1.948817      2.095242
  N      -1.051512      0.130518     -0.520147
  C      -2.317962      0.382042      0.184845
  C      -3.106156      1.558125     -0.373054
  H      -3.930014      1.782484      0.302894
  H      -3.551911      1.346335     -1.345865
  H      -2.495542      2.457728     -0.453544
  C      -3.151915     -0.894356      0.200027
  H      -2.025710      0.620211      1.208582
  H      -4.054253     -0.738189      0.789580
  H      -3.457021     -1.178073     -0.808032
  H      -2.611883     -1.729456      0.643339
  C      -0.895203      0.416533     -1.759265
  C       0.432784      0.227718     -2.271728
  H      -1.700467      0.814209     -2.368992
  C       1.486566      0.169962     -1.356872
  C       2.706712     -0.115952     -2.045000
  S       0.911116     -0.044660     -3.874247
  C       2.544002     -0.253217     -3.388204
  H       1.548617      1.191295     -0.642251
  H       3.673109     -0.159536     -1.564049
  H       3.302258     -0.442385     -4.132764
  H      -0.714280     -3.230662     -0.227612
  H      -0.850045     -2.401902      2.358201
  H       1.589611     -1.515390      3.049031
  O       1.518643      2.389286      0.135397
  O       0.559475      0.985436      1.571862
  C       1.019514      2.130776      1.239911
  C       0.962696      3.192241      2.300933
  H       0.943433      4.184124      1.857510
  H       1.860475      3.121581      2.917887
  H       0.104645      3.056851      2.955134
  H       3.255417     -1.891294      0.986191
  H       1.803173     -2.925957     -1.067876
39
Coordinates from ORCA-job reaction4-IEIP_ts_guess_scan_10-5_orca E -1288.400688338553
  Ir      0.623523     -0.723826      0.426431
  C       0.098270     -2.830687      0.360536
  C       0.012942     -2.369018      1.719207
  C       2.194566     -2.105610      0.999429
  C       1.427055     -2.668117     -0.083674
  C       1.318633     -1.949316      2.099771
  N      -1.050458      0.129658     -0.519454
  C      -2.317034      0.379092      0.185896
  C      -3.105878      1.555516     -0.370330
  H      -3.929793      1.778288      0.306074
  H      -3.551564      1.344915     -1.343444
  H      -2.495866      2.455633     -0.449556
  C      -3.150173     -0.897859      0.198494
  H      -2.025243      0.615902      1.210064
  H      -4.053106     -0.743149      0.787540
  H      -3.454272     -1.180219     -0.810240
  H      -2.610078     -1.733391      0.640882
  C      -0.894493      0.420217     -1.757397
  C       0.432596      0.232335     -2.271344
  H      -1.699918      0.820481     -2.365165
  C       1.486493      0.164138     -1.357359
  C       2.706025     -0.117733     -2.048117
  S       0.910788     -0.023542     -3.876591
  C       2.543046     -0.240424     -3.392782
  H       1.552393      1.184495     -0.640127
  H       3.672244     -0.169260     -1.567614
  H       3.300853     -0.423826     -4.139249
  H      -0.715465     -3.231784     -0.226310
  H      -0.856200     -2.399815      2.358532
  H       1.583005     -1.514801      3.053497
  O       1.529377      2.385245      0.133492
  O       0.561291      0.985858      1.569118
  C       1.026145      2.129187      1.236913
  C       0.964035      3.194327      2.293827
  H       0.945365      4.184525      1.846597
  H       1.859665      3.126912      2.914220
  H       0.103668      3.060404      2.945223
  H       3.252960     -1.895110      0.995013
  H       1.803974     -2.930451     -1.061264
39
Coordinates from ORCA-job reaction4-IEIP_ts_guess_scan_10-5_orca E -1288.400695273090
  Ir      0.622963     -0.725215      0.427534
  C       0.096889     -2.831242      0.362595
  C       0.006999     -2.367432      1.720505
  C       2.191636     -2.106794      1.008353
  C       1.427593     -2.670268     -0.076699
  C       1.311748     -1.948278      2.105332
  N      -1.050012      0.129429     -0.518850
  C      -2.317119      0.375517      0.186766
  C      -3.107737      1.551599     -0.367749
  H      -3.931874      1.772026      0.309160
  H      -3.553216      1.341776     -1.341133
  H      -2.499179      2.452801     -0.445754
  C      -3.148391     -0.902665      0.196239
  H      -2.026262      0.611141      1.211443
  H      -4.052446     -0.750216      0.784192
  H      -3.450622     -1.183889     -0.813363
  H      -2.607932     -1.738259      0.637959
  C      -0.894164      0.425423     -1.755571
  C       0.432006      0.238050     -2.271080
  H      -1.699738      0.828160     -2.361388
  C       1.486277      0.157612     -1.358637
  C       2.704651     -0.120835     -2.052429
  S       0.909058     -0.003160     -3.879089
  C       2.541093     -0.226389     -3.398625
  H       1.557816      1.175640     -0.636889
  H       3.670858     -0.180894     -1.572920
  H       3.298343     -0.402804     -4.147346
  H      -0.714675     -3.233063     -0.226720
  H      -0.864420     -2.396678      2.356813
  H       1.573097     -1.512409      3.059278
  O       1.544563      2.378750      0.133285
  O       0.561227      0.987260      1.566571
  C       1.031489      2.128357      1.233522
  C       0.968702      3.196445      2.287213
  H       0.953887      4.185247      1.836721
  H       1.862371      3.128870      2.910387
  H       0.105955      3.066620      2.936193
  H       3.250184     -1.897023      1.007571
  H       1.807751     -2.934020     -1.052650
39
Coordinates from ORCA-job reaction4-IEIP_ts_guess_scan_10-5_orca E -1288.400702720344
  Ir      0.623148     -0.725139      0.427874
  C       0.097855     -2.831114      0.361970
  C       0.002323     -2.365563      1.719218
  C       2.190143     -2.106178      1.016234
  C       1.430519     -2.670531     -0.071441
  C       1.305644     -1.946628      2.109411
  N      -1.049808      0.130363     -0.518001
  C      -2.317462      0.372984      0.188071
  C      -3.110339      1.548636     -0.364348
  H      -3.934568      1.766502      0.313272
  H      -3.555845      1.339537     -1.337878
  H      -2.503477      2.451080     -0.441215
  C      -3.146815     -0.906450      0.194377
  H      -2.027386      0.607328      1.213248
  H      -4.051995     -0.756367      0.781244
  H      -3.447204     -1.186463     -0.816107
  H      -2.606017     -1.742146      0.635348
  C      -0.893941      0.431521     -1.753724
  C       0.431451      0.244456     -2.270898
  H      -1.699571      0.836808     -2.357649
  C       1.486474      0.152806     -1.360696
  C       2.702882     -0.125339     -2.057435
  S       0.906525      0.015510     -3.881626
  C       2.537288     -0.220586     -3.404336
  H       1.565467      1.167287     -0.632953
  H       3.669323     -0.193575     -1.579512
  H       3.293101     -0.395242     -4.154916
  H      -0.710890     -3.234147     -0.230344
  H      -0.871517     -2.394566      2.352232
  H       1.563103     -1.509968      3.064057
  O       1.563984      2.370425      0.137288
  O       0.560171      0.988536      1.565463
  C       1.039616      2.126464      1.233516
  C       0.970589      3.198731      2.282336
  H       0.959941      4.185546      1.827297
  H       1.860073      3.133090      2.911601
  H       0.103241      3.072652      2.925836
  H       3.248660     -1.896298      1.019620
  H       1.814685     -2.934773     -1.045693
39
Coordinates from ORCA-job reaction4-IEIP_ts_guess_scan_10-5_orca E -1288.400708253137
  Ir      0.623052     -0.723197      0.427982
  C       0.101346     -2.830248      0.359688
  C      -0.004165     -2.362487      1.715836
  C       2.188409     -2.102121      1.028219
  C       1.436918     -2.668548     -0.063841
  C       1.295982     -1.942520      2.115062
  N      -1.050419      0.132374     -0.516863
  C      -2.319104      0.369802      0.189154
  C      -3.115817      1.544001     -0.361134
  H      -3.940679      1.757919      0.316922
  H      -3.560697      1.335033     -1.334997
  H      -2.512028      2.448638     -0.436491
  C      -3.145024     -0.911866      0.191307
  H      -2.030492      0.602934      1.215033
  H      -4.052011     -0.765468      0.776350
  H      -3.442419     -1.190641     -0.820408
  H      -2.603373     -1.747294      0.631636
  C      -0.894459      0.439868     -1.751276
  C       0.429642      0.253395     -2.270978
  H      -1.700391      0.848111     -2.352772
  C       1.485810      0.147455     -1.364423
  C       2.698910     -0.132146     -2.065372
  S       0.900472      0.035736     -3.885131
  C       2.529832     -0.215519     -3.412921
  H       1.577866      1.156306     -0.627449
  H       3.665975     -0.209939     -1.590214
  H       3.283391     -0.388919     -4.166048
  H      -0.702291     -3.236046     -0.237612
  H      -0.881835     -2.392774      2.343490
  H       1.546245     -1.504782      3.071138
  O       1.595337      2.356713      0.146846
  O       0.556524      0.991121      1.564719
  C       1.051794      2.123437      1.235769
  C       0.976392      3.201122      2.278404
  H       0.973554      4.185424      1.817690
  H       1.859914      3.136259      2.916007
  H       0.102491      3.081639      2.914158
  H       3.246592     -1.890824      1.038561
  H       1.828127     -2.932761     -1.035304
39
Coordinates from ORCA-job reaction4-IEIP_ts_guess_scan_10-5_orca E -1288.400706459492
  Ir      0.622104     -0.720387      0.427880
  C       0.105901     -2.829383      0.357308
  C      -0.009481     -2.360241      1.712438
  C       2.186992     -2.095817      1.039142
  C       1.443908     -2.665074     -0.056930
  C       1.286852     -1.937591      2.120024
  N      -1.052477      0.134058     -0.516297
  C      -2.322414      0.366806      0.188956
  C      -3.122649      1.539388     -0.359843
  H      -3.948552      1.749481      0.318088
  H      -3.566357      1.330313     -1.334235
  H      -2.521897      2.446188     -0.433500
  C      -3.144956     -0.917082      0.187441
  H      -2.035508      0.598967      1.215566
  H      -4.053464     -0.774315      0.771045
  H      -3.439777     -1.194637     -0.825373
  H      -2.602151     -1.752146      0.626973
  C      -0.896183      0.445942     -1.749697
  C       0.426932      0.260610     -2.271319
  H      -1.702474      0.855921     -2.349556
  C       1.483957      0.144605     -1.367699
  C       2.694349     -0.137002     -2.071974
  S       0.893862      0.048828     -3.887881
  C       2.522305     -0.212892     -3.419802
  H       1.588836      1.148221     -0.622434
  H       3.662043     -0.220922     -1.599153
  H       3.274037     -0.386067     -4.174801
  H      -0.692575     -3.238449     -0.244627
  H      -0.890618     -2.393078      2.335086
  H       1.529653     -1.498707      3.077513
  O       1.625656      2.344659      0.157307
  O       0.552469      0.994703      1.563866
  C       1.064410      2.120854      1.239062
  C       0.986292      3.202636      2.277238
  H       0.990971      4.185106      1.812517
  H       1.865318      3.136946      2.920888
  H       0.107420      3.089538      2.907198
  H       3.244599     -1.882121      1.056088
  H       1.842036     -2.928670     -1.025761
39
Coordinates from ORCA-job reaction4-IEIP_ts_guess_scan_10-5_orca E -1288.400704947774
  Ir      0.620187     -0.717332      0.427464
  C       0.110941     -2.828657      0.354702
  C      -0.013645     -2.359264      1.709058
  C       2.185709     -2.087918      1.048291
  C       1.450849     -2.660476     -0.051297
  C       1.278505     -1.932449      2.123924
  N      -1.055579      0.134911     -0.516433
  C      -2.326545      0.364266      0.187826
  C      -3.129311      1.535462     -0.360219
  H      -3.956297      1.742593      0.317260
  H      -3.571738      1.326179     -1.335163
  H      -2.530905      2.443925     -0.432380
  C      -3.146316     -0.921460      0.183792
  H      -2.041066      0.595816      1.215015
  H      -4.055601     -0.781775      0.766937
  H      -3.439758     -1.197848     -0.829751
  H      -2.602061     -1.756204      0.622142
  C      -0.899005      0.448781     -1.749236
  C       0.423569      0.264952     -2.271935
  H      -1.705709      0.859120     -2.348375
  C       1.481159      0.144381     -1.370113
  C       2.689872     -0.139211     -2.076408
  S       0.887583      0.053786     -3.889685
  C       2.515804     -0.212466     -3.424221
  H       1.597138      1.143698     -0.618724
  H       3.658109     -0.225318     -1.605078
  H       3.266385     -0.386144     -4.180248
  H      -0.682638     -3.241056     -0.251394
  H      -0.897830     -2.395513      2.327160
  H       1.514012     -1.492392      3.082709
  O       1.650646      2.335994      0.166376
  O       0.548157      0.998751      1.562133
  C       1.075600      2.118969      1.242256
  C       0.998802      3.202799      2.278511
  H       1.008657      4.184391      1.811925
  H       1.876034      3.135309      2.924397
  H       0.117727      3.094451      2.906156
  H       3.242552     -1.871059      1.071203
  H       1.855378     -2.922802     -1.017837
39
Coordinates from ORCA-job reaction4-IEIP_ts_guess_scan_10-5_orca E -1288.400709408217
  Ir      0.617479     -0.715028      0.426898
  C       0.115738     -2.828506      0.352253
  C      -0.016585     -2.360108      1.706237
  C       2.184527     -2.079876      1.055240
  C       1.456973     -2.655762     -0.047190
  C       1.271474     -1.928157      2.126761
  N      -1.059387      0.134379     -0.517351
  C      -2.330933      0.362160      0.186098
  C      -3.134575      1.532855     -0.361538
  H      -3.962391      1.738325      0.315418
  H      -3.575974      1.323854     -1.337015
  H      -2.537181      2.442075     -0.432332
  C      -3.149271     -0.924551      0.180667
  H      -2.046290      0.593152      1.213677
  H      -4.058273     -0.786996      0.764748
  H      -3.443090     -1.199477     -0.833171
  H      -2.603544     -1.759389      0.617053
  C      -0.902695      0.447716     -1.750068
  C       0.419958      0.265410     -2.272769
  H      -1.709779      0.856984     -2.349523
  C       1.477762      0.146318     -1.371185
  C       2.686271     -0.138160     -2.077932
  S       0.882879      0.050987     -3.890352
  C       2.511653     -0.213136     -3.425536
  H       1.601300      1.143356     -0.617404
  H       3.654825     -0.222392     -1.606893
  H       3.262041     -0.387216     -4.181662
  H      -0.673661     -3.243804     -0.257302
  H      -0.903304     -2.399919      2.320448
  H       1.500543     -1.486971      3.086595
  O       1.666395      2.332646      0.171372
  O       0.544463      1.002933      1.559072
  C       1.083835      2.118456      1.243962
  C       1.012553      3.201781      2.281322
  H       1.022968      4.183631      1.815231
  H       1.891991      3.132504      2.924026
  H       0.133310      3.095056      2.911748
  H       3.240542     -1.859628      1.083124
  H       1.866823     -2.916311     -1.011989
39
Coordinates from ORCA-job reaction4-IEIP_ts_guess_scan_10-5_orca E -1288.400713178459
  Ir      0.615290     -0.714760      0.426682
  C       0.118279     -2.828955      0.350934
  C      -0.019309     -2.361645      1.704815
  C       2.183123     -2.075346      1.060531
  C       1.460568     -2.653368     -0.043936
  C       1.266012     -1.926106      2.129235
  N      -1.061882      0.132991     -0.518207
  C      -2.333469      0.360190      0.185266
  C      -3.136772      1.531473     -0.361439
  H      -3.964844      1.736210      0.315443
  H      -3.577822      1.323677     -1.337329
  H      -2.539217      2.440670     -0.430916
  C      -3.151588     -0.926684      0.178629
  H      -2.048982      0.590221      1.213093
  H      -4.059720     -0.790460      0.764363
  H      -3.446800     -1.199747     -0.835305
  H      -2.604819     -1.762167      0.612516
  C      -0.905421      0.445874     -1.750875
  C       0.417532      0.264424     -2.273228
  H      -1.712743      0.854192     -2.350688
  C       1.475323      0.147297     -1.371178
  C       2.684355     -0.136201     -2.077976
  S       0.880911      0.049898     -3.890412
  C       2.510262     -0.211211     -3.425552
  H       1.602499      1.144170     -0.618341
  H       3.652877     -0.219008     -1.606598
  H       3.260914     -0.384096     -4.181690
  H      -0.668305     -3.245811     -0.261190
  H      -0.908091     -2.403127      2.315914
  H       1.490732     -1.483986      3.089668
  O       1.674245      2.332222      0.171724
  O       0.542564      1.005817      1.555104
  C       1.088566      2.118697      1.242978
  C       1.021926      3.201027      2.281742
  H       1.029283      4.183231      1.816279
  H       1.905087      3.132061      2.919368
  H       0.146180      3.093389      2.916798
  H       3.238628     -1.853176      1.092072
  H       1.873997     -2.912687     -1.007557
39
Coordinates from ORCA-job reaction4-IEIP_ts_guess_scan_10-5_orca E -1288.400713872265
  Ir      0.614347     -0.715321      0.426606
  C       0.119840     -2.829402      0.349600
  C      -0.021488     -2.362799      1.703473
  C       2.182230     -2.073497      1.064471
  C       1.463064     -2.652435     -0.041695
  C       1.262193     -1.925551      2.131057
  N      -1.062991      0.131958     -0.518441
  C      -2.334406      0.358676      0.185566
  C      -3.136981      1.531128     -0.359659
  H      -3.965031      1.735380      0.317419
  H      -3.577982      1.325105     -1.335941
  H      -2.538812      2.440021     -0.427699
  C      -3.152894     -0.927935      0.177199
  H      -2.049816      0.587327      1.213643
  H      -4.060239     -0.792697      0.764380
  H      -3.449416     -1.198866     -0.836916
  H      -2.605707     -1.764447      0.608580
  C      -0.906899      0.445329     -1.750974
  C       0.416324      0.264014     -2.273152
  H      -1.714311      0.853378     -2.350816
  C       1.474285      0.147473     -1.370947
  C       2.683487     -0.135386     -2.077993
  S       0.879983      0.050427     -3.890185
  C       2.509615     -0.209807     -3.425570
  H       1.603328      1.144462     -0.619472
  H       3.651952     -0.218115     -1.606472
  H       3.260199     -0.381918     -4.181949
  H      -0.664751     -3.246992     -0.264572
  H      -0.911995     -2.404701      2.312032
  H       1.484011     -1.483006      3.091966
  O       1.679025      2.331913      0.171126
  O       0.541658      1.007435      1.551877
  C       1.091201      2.119053      1.241405
  C       1.025835      3.201101      2.280467
  H       1.028596      4.183208      1.814671
  H       1.912203      3.134836      2.913919
  H       0.153191      3.091326      2.919341
  H       3.237482     -1.850566      1.098855
  H       1.879038     -2.910918     -1.004457
39
Coordinates from ORCA-job reaction4-IEIP_ts_guess_scan_10-5_orca E -1288.400713655473
  Ir      0.614435     -0.715898      0.426517
  C       0.121168     -2.829637      0.347815
  C      -0.023071     -2.363558      1.701720
  C       2.181884     -2.073060      1.067335
  C       1.465228     -2.652065     -0.040405
  C       1.259535     -1.925867      2.132159
  N      -1.063115      0.131532     -0.518131
  C      -2.334318      0.357794      0.186522
  C      -3.136118      1.531652     -0.356886
  H      -3.964070      1.735417      0.320468
  H      -3.577139      1.327636     -1.333573
  H      -2.537236      2.440191     -0.423371
  C      -3.153430     -0.928362      0.176049
  H      -2.049542      0.584823      1.214876
  H      -4.060176     -0.793957      0.764352
  H      -3.450989     -1.197046     -0.838353
  H      -2.606255     -1.766105      0.605068
  C      -0.907396      0.445679     -1.750518
  C       0.415972      0.264102     -2.272752
  H      -1.714798      0.853937     -2.350183
  C       1.474282      0.147551     -1.370765
  C       2.683192     -0.135710     -2.078215
  S       0.879243      0.050390     -3.889788
  C       2.508991     -0.210317     -3.425716
  H       1.604302      1.144572     -0.620326
  H       3.651713     -0.218803     -1.606863
  H       3.259138     -0.382719     -4.182461
  H      -0.661865     -3.247561     -0.268108
  H      -0.915034     -2.405421      2.308160
  H       1.479238     -1.483452      3.093609
  O       1.681438      2.331773      0.170509
  O       0.541305      1.008180      1.549803
  C       1.092187      2.119496      1.240054
  C       1.025953      3.201698      2.278797
  H       1.022447      4.183429      1.812117
  H       1.915515      3.140153      2.908231
  H       0.156511      3.088588      2.921366
  H       3.237027     -1.850013      1.104120
  H       1.883220     -2.909850     -1.002491
39
Coordinates from ORCA-job reaction4-IEIP_ts_guess_scan_10-5_orca E -1288.400713042446
  Ir      0.615286     -0.716457      0.426528
  C       0.122710     -2.829853      0.345602
  C      -0.024563     -2.364308      1.699527
  C       2.181824     -2.073414      1.070323
  C       1.467711     -2.652022     -0.039211
  C       1.257000     -1.926829      2.133200
  N      -1.062626      0.131483     -0.517315
  C      -2.333662      0.357181      0.187924
  C      -3.134538      1.532806     -0.353143
  H      -3.962450      1.735839      0.324476
  H      -3.575470      1.331294     -1.330384
  H      -2.534862      2.440974     -0.417571
  C      -3.153665     -0.928336      0.174556
  H      -2.048775      0.582070      1.216694
  H      -4.059997     -0.794844      0.763712
  H      -3.451982     -1.194263     -0.840348
  H      -2.606901     -1.767661      0.601016
  C      -0.907284      0.446604     -1.749521
  C       0.416037      0.264627     -2.272121
  H      -1.714645      0.855501     -2.348776
  C       1.474840      0.147381     -1.370707
  C       2.683049     -0.136960     -2.078893
  S       0.878219      0.050322     -3.889370
  C       2.508007     -0.211886     -3.426266
  H       1.605595      1.144429     -0.620951
  H       3.651761     -0.220823     -1.608060
  H       3.257398     -0.385128     -4.183567
  H      -0.658687     -3.248016     -0.272222
  H      -0.918040     -2.406042      2.303760
  H       1.474570     -1.484966      3.095383
  O       1.682780      2.331630      0.169879
  O       0.541566      1.008445      1.548551
  C       1.092405      2.119964      1.238810
  C       1.024021      3.202831      2.276649
  H       1.011317      4.183827      1.808455
  H       1.917732      3.148724      2.900857
  H       0.158914      3.084781      2.924070
  H       3.236917     -1.850611      1.109753
  H       1.887855     -2.909105     -1.000558
