39
Generated by autodE on: 2023-08-14. E = -1288.393965 Ha
Ir    0.57099  -0.73674   0.49858
C     0.01292  -2.81292   0.36761
C     0.08685  -2.37215   1.73943
C     2.17895  -2.15332   0.80375
C     1.28174  -2.64925  -0.21602
C     1.45448  -2.02130   2.00075
N    -1.04043   0.15659  -0.50880
C    -2.31990   0.48195   0.14283
C    -3.12697   1.53951  -0.59328
H    -3.96154   1.84555   0.03605
H    -3.55994   1.17343  -1.52558
H    -2.53729   2.43193  -0.80529
C    -3.12749  -0.79259   0.35513
H    -2.03934   0.88254   1.11854
H    -4.04929  -0.55677   0.88475
H    -3.39879  -1.25291  -0.59589
H    -2.58967  -1.52482   0.95572
C    -0.83215   0.36273  -1.75267
C     0.51739   0.16315  -2.22986
H    -1.61805   0.71030  -2.41748
C     1.62382   0.51477  -1.46719
C     2.82355   0.12984  -2.12962
S     0.93513  -0.55995  -3.72221
C     2.60454  -0.44975  -3.34112
H     1.53948   1.39546  -0.63562
H     3.81313   0.32699  -1.74346
H     3.33846  -0.80129  -4.05060
H    -0.87476  -3.16746  -0.13632
H    -0.70764  -2.40845   2.47036
H     1.83740  -1.63876   2.93594
O     1.34763   2.41989   0.25576
O     0.53745   0.91248   1.68704
C     0.93148   2.09761   1.36979
C     0.88663   3.09828   2.48878
H     0.84253   4.11116   2.09788
H     1.79939   3.00922   3.08127
H     0.04797   2.91819   3.15782
H     3.22504  -1.92300   0.66603
H     1.54567  -2.86094  -1.24208
