39
Generated by autodE on: 2023-08-13. E = -1288.400172 Ha
Ir    0.60380  -0.71200   0.43068
C     0.05234  -2.79869   0.33554
C     0.13085  -2.34226   1.70120
C     2.21662  -2.12069   0.74904
C     1.31781  -2.63965  -0.25730
C     1.49507  -1.97534   1.94766
N    -1.04594   0.17539  -0.52724
C    -2.31086   0.50377   0.14736
C    -3.12285   1.56962  -0.57037
H    -3.94862   1.87404   0.07124
H    -3.56840   1.21193  -1.50011
H    -2.53191   2.46132  -0.78191
C    -3.11821  -0.77048   0.36313
H    -2.01056   0.89473   1.12078
H    -4.02628  -0.53717   0.91695
H    -3.41318  -1.21874  -0.58654
H    -2.56806  -1.51114   0.94182
C    -0.85140   0.38367  -1.77100
C     0.49864   0.14820  -2.23665
H    -1.63005   0.74993  -2.43371
C     1.59734   0.46898  -1.44446
C     2.80451   0.04487  -2.07411
S     0.93108  -0.62120  -3.69357
C     2.59709  -0.55161  -3.27694
H     1.53362   1.35736  -0.69384
H     3.78840   0.22698  -1.66691
H     3.33516  -0.93621  -3.96444
H    -0.83564  -3.16588  -0.15870
H    -0.65927  -2.37168   2.43695
H     1.87949  -1.57365   2.87422
O     1.28845   2.48641   0.26279
O     0.53579   0.91158   1.65217
C     0.89364   2.12125   1.36499
C     0.82291   3.07813   2.52321
H     0.77507   4.10466   2.17023
H     1.72598   2.97404   3.12781
H    -0.02467   2.86715   3.17213
H     3.26286  -1.89421   0.60757
H     1.57875  -2.87420  -1.27890
