39
Coordinates from ORCA-job reaction4-IEIP_ts_guess_scan_5-10_orca E -1288.398122694332
  Ir      0.595439     -0.722069      0.469941
  C       0.062824     -2.811472      0.350920
  C       0.054568     -2.356828      1.718386
  C       2.196326     -2.118144      0.894880
  C       1.362537     -2.642560     -0.162705
  C       1.396703     -1.977291      2.045690
  N      -1.047228      0.144075     -0.510199
  C      -2.324184      0.427517      0.166271
  C      -3.110524      1.563488     -0.470037
  H      -3.939931      1.828428      0.184319
  H      -3.549144      1.290469     -1.430852
  H      -2.501197      2.457831     -0.602166
  C      -3.151155     -0.850030      0.251635
  H      -2.043888      0.728854      1.176720
  H      -4.066033     -0.659063      0.810737
  H      -3.434691     -1.204703     -0.740163
  H      -2.617560     -1.648945      0.764351
  C      -0.866889      0.374194     -1.753064
  C       0.472411      0.183070     -2.244126
  H      -1.666262      0.727800     -2.398051
  C       1.567771      0.377336     -1.410886
  C       2.770102      0.019277     -2.083825
  S       0.902865     -0.373893     -3.796967
  C       2.561964     -0.394434     -3.364123
  H       1.540294      1.308136     -0.599484
  H       3.755470      0.120000     -1.652494
  H       3.300873     -0.690019     -4.093698
  H      -0.788512     -3.188538     -0.197325
  H      -0.778435     -2.394707      2.404673
  H       1.719437     -1.572134      2.994203
  O       1.435283      2.394571      0.207033
  O       0.543216      0.951081      1.640265
  C       0.975210      2.113424      1.316197
  C       0.927088      3.147178      2.403813
  H       0.885330      4.148570      1.983924
  H       1.839158      3.075174      2.999620
  H       0.086151      2.986019      3.074372
  H       3.249327     -1.891673      0.821185
  H       1.684655     -2.870797     -1.168227
39
Coordinates from ORCA-job reaction4-IEIP_ts_guess_scan_5-10_orca E -1288.398266922928
  Ir      0.598206     -0.724092      0.471204
  C       0.060362     -2.814073      0.357811
  C       0.051173     -2.357923      1.724440
  C       2.194375     -2.123879      0.903148
  C       1.361069     -2.649145     -0.154273
  C       1.393050     -1.979100      2.052393
  N      -1.046845      0.143228     -0.511888
  C      -2.323035      0.426163      0.164830
  C      -3.110144      1.560170     -0.473882
  H      -3.940586      1.824983      0.179190
  H      -3.547182      1.285094     -1.434864
  H      -2.501858      2.455131     -0.606709
  C      -3.148074     -0.852433      0.252027
  H      -2.042493      0.729091      1.174742
  H      -4.062915     -0.662082      0.811366
  H      -3.431594     -1.208651     -0.739218
  H      -2.612960     -1.649928      0.765441
  C      -0.868515      0.376131     -1.757048
  C       0.471310      0.191537     -2.253338
  H      -1.669416      0.732895     -2.398398
  C       1.564447      0.372528     -1.414382
  C       2.767335      0.018158     -2.089245
  S       0.902725     -0.353735     -3.809796
  C       2.561085     -0.381723     -3.374118
  H       1.539443      1.310749     -0.600098
  H       3.752159      0.113082     -1.655315
  H       3.300803     -0.671059     -4.105277
  H      -0.790869     -3.190793     -0.190860
  H      -0.782612     -2.393683      2.409775
  H       1.715162     -1.572785      3.000600
  O       1.439142      2.398093      0.205792
  O       0.543586      0.952331      1.642019
  C       0.978075      2.114746      1.317246
  C       0.930708      3.148482      2.404690
  H       0.889621      4.149990      1.984905
  H       1.842706      3.075747      3.000477
  H       0.089613      2.987684      3.075053
  H       3.248107     -1.900563      0.830874
  H       1.684204     -2.881178     -1.158571
39
Coordinates from ORCA-job reaction4-IEIP_ts_guess_scan_5-10_orca E -1288.398344298880
  Ir      0.596747     -0.724844      0.473691
  C       0.054046     -2.814886      0.369033
  C       0.042144     -2.355949      1.733994
  C       2.187561     -2.126574      0.916458
  C       1.356277     -2.654324     -0.140769
  C       1.382799     -1.976540      2.063073
  N      -1.044175      0.139381     -0.512168
  C      -2.321003      0.420336      0.163862
  C      -3.110152      1.553399     -0.474111
  H      -3.941494      1.816054      0.178715
  H      -3.546181      1.278295     -1.435515
  H      -2.503611      2.449707     -0.605841
  C      -3.144447     -0.859362      0.250902
  H      -2.040944      0.723083      1.173997
  H      -4.059550     -0.670407      0.810359
  H      -3.427474     -1.215739     -0.740406
  H      -2.608143     -1.656064      0.764142
  C      -0.865986      0.378149     -1.757737
  C       0.473218      0.199024     -2.261155
  H      -1.668115      0.739395     -2.394658
  C       1.566162      0.359228     -1.417513
  C       2.768363      0.015481     -2.099880
  S       0.903361     -0.311641     -3.828921
  C       2.561323     -0.357690     -3.392506
  H       1.545958      1.306187     -0.599947
  H       3.753433      0.098600     -1.663991
  H       3.300269     -0.634349     -4.129265
  H      -0.796411     -3.191973     -0.180542
  H      -0.793246     -2.388593      2.417401
  H       1.703039     -1.567379      3.010685
  O       1.452325      2.395252      0.204421
  O       0.539104      0.954223      1.640263
  C       0.982834      2.112972      1.315575
  C       0.936859      3.148983      2.400165
  H       0.903705      4.149998      1.978473
  H       1.845643      3.071774      3.000292
  H       0.091598      2.994032      3.066545
  H       3.242112     -1.906477      0.846770
  H       1.681424     -2.891572     -1.143148
39
Coordinates from ORCA-job reaction4-IEIP_ts_guess_scan_5-10_orca E -1288.398372838378
  Ir      0.597535     -0.728500      0.477916
  C       0.050867     -2.818030      0.381377
  C       0.036301     -2.355192      1.744586
  C       2.184262     -2.131969      0.931004
  C       1.354724     -2.661931     -0.126267
  C       1.376355     -1.976106      2.074877
  N      -1.042439      0.135881     -0.513588
  C      -2.320774      0.414389      0.161575
  C      -3.109982      1.549624     -0.472479
  H      -3.941916      1.809245      0.180788
  H      -3.545352      1.278196     -1.435212
  H      -2.503856      2.446809     -0.600146
  C      -3.145326     -0.865055      0.243512
  H      -2.042243      0.713705      1.173177
  H      -4.061318     -0.677068      0.801861
  H      -3.426817     -1.218354     -0.749331
  H      -2.610666     -1.663523      0.755437
  C      -0.864656      0.380794     -1.758006
  C       0.472398      0.204963     -2.265912
  H      -1.668226      0.744080     -2.391850
  C       1.565321      0.347031     -1.418991
  C       2.767035      0.014380     -2.107312
  S       0.900996     -0.280895     -3.841367
  C       2.559763     -0.328984     -3.408248
  H       1.549829      1.298684     -0.600426
  H       3.752182      0.087470     -1.669820
  H       3.298498     -0.589816     -4.150942
  H      -0.798856     -3.195488     -0.169063
  H      -0.800782     -2.383978      2.426062
  H       1.695020     -1.563913      3.021728
  O       1.461392      2.389791      0.201759
  O       0.539547      0.955739      1.639282
  C       0.988038      2.110861      1.312793
  C       0.944761      3.151056      2.393177
  H       0.915946      4.150743      1.968106
  H       1.852476      3.072425      2.994761
  H       0.097981      3.001355      3.058847
  H       3.239611     -1.915022      0.863864
  H       1.681737     -2.904206     -1.126793
39
Coordinates from ORCA-job reaction4-IEIP_ts_guess_scan_5-10_orca E -1288.398379970823
  Ir      0.597561     -0.731167      0.481032
  C       0.049807     -2.820096      0.389851
  C       0.031999     -2.354114      1.751758
  C       2.182418     -2.134458      0.942648
  C       1.355209     -2.666438     -0.115347
  C       1.371304     -1.974582      2.083848
  N      -1.041207      0.132845     -0.514652
  C      -2.320866      0.407896      0.160409
  C      -3.110023      1.546489     -0.467778
  H      -3.942095      1.802247      0.186796
  H      -3.545341      1.280339     -1.432005
  H      -2.504163      2.444574     -0.590368
  C      -3.146380     -0.871445      0.234812
  H      -2.043923      0.702154      1.173950
  H      -4.063409     -0.685336      0.792061
  H      -3.426047     -1.220004     -0.760227
  H      -2.613534     -1.672686      0.744211
  C      -0.863881      0.384372     -1.757360
  C       0.471029      0.212326     -2.268520
  H      -1.668854      0.749560     -2.388440
  C       1.564505      0.338037     -1.419878
  C       2.765343      0.012070     -2.112006
  S       0.899441     -0.240491     -3.853411
  C       2.556605     -0.312272     -3.417850
  H       1.554232      1.291330     -0.600462
  H       3.750393      0.070896     -1.672230
  H       3.294240     -0.567867     -4.163441
  H      -0.798701     -3.198296     -0.161959
  H      -0.806873     -2.380174      2.431136
  H       1.688003     -1.559753      3.030233
  O       1.470389      2.384356      0.199602
  O       0.539795      0.958119      1.637356
  C       0.992730      2.109782      1.309664
  C       0.950989      3.154521      2.385928
  H       0.926158      4.152733      1.957264
  H       1.857362      3.075122      2.989439
  H       0.102524      3.009914      3.050651
  H       3.238274     -1.919190      0.878325
  H       1.684357     -2.912121     -1.114302
39
Coordinates from ORCA-job reaction4-IEIP_ts_guess_scan_5-10_orca E -1288.398394989078
  Ir      0.596203     -0.731398      0.481492
  C       0.049823     -2.819858      0.387641
  C       0.030129     -2.354557      1.749898
  C       2.181569     -2.133784      0.943738
  C       1.355877     -2.665211     -0.115763
  C       1.369038     -1.974923      2.084012
  N      -1.040240      0.132676     -0.513193
  C      -2.319524      0.407991      0.162439
  C      -3.107863      1.548070     -0.464246
  H      -3.939227      1.803904      0.191199
  H      -3.544096      1.283374     -1.428459
  H      -2.501237      2.445705     -0.586330
  C      -3.145782     -0.870909      0.235160
  H      -2.042347      0.700946      1.176286
  H      -4.062833     -0.684861      0.792392
  H      -3.425447     -1.218131     -0.760350
  H      -2.613585     -1.673246      0.743683
  C      -0.862940      0.383097     -1.755911
  C       0.471522      0.209179     -2.266646
  H      -1.668016      0.747235     -2.387575
  C       1.566063      0.335229     -1.419378
  C       2.766753      0.012361     -2.112859
  S       0.898914     -0.246571     -3.851193
  C       2.557002     -0.310748     -3.419014
  H       1.555890      1.287311     -0.600227
  H       3.752261      0.073319     -1.674481
  H       3.294327     -0.563079     -4.166048
  H      -0.797774     -3.197931     -0.165664
  H      -0.809674     -2.381069      2.428119
  H       1.684471     -1.560470      3.030981
  O       1.470745      2.381070      0.198696
  O       0.538868      0.957310      1.636692
  C       0.991877      2.108621      1.308270
  C       0.948295      3.155150      2.383122
  H       0.923072      4.152650      1.952848
  H       1.854168      3.077375      2.987576
  H       0.099384      3.011059      3.047407
  H       3.237399     -1.917907      0.880985
  H       1.686306     -2.909791     -1.114562
39
Coordinates from ORCA-job reaction4-IEIP_ts_guess_scan_5-10_orca E -1288.398398854231
  Ir      0.596519     -0.731689      0.481843
  C       0.051364     -2.820134      0.385788
  C       0.029628     -2.355323      1.748324
  C       2.182210     -2.133576      0.945453
  C       1.358118     -2.664643     -0.115534
  C       1.368093     -1.975582      2.084624
  N      -1.040081      0.132933     -0.512522
  C      -2.319118      0.407895      0.163711
  C      -3.106609      1.549513     -0.461360
  H      -3.937624      1.805113      0.194638
  H      -3.543190      1.286482     -1.425859
  H      -2.499256      2.446784     -0.582389
  C      -3.146044     -0.870691      0.234047
  H      -2.041936      0.699177      1.178003
  H      -4.063225     -0.685134      0.791262
  H      -3.425556     -1.216109     -0.762135
  H      -2.614477     -1.674239      0.741299
  C      -0.863428      0.382871     -1.755534
  C       0.470804      0.208911     -2.266322
  H      -1.668870      0.746351     -2.387080
  C       1.565659      0.334622     -1.419572
  C       2.766140      0.011021     -2.112710
  S       0.898124     -0.247435     -3.850971
  C       2.556061     -0.311513     -3.419111
  H       1.556349      1.285730     -0.600170
  H       3.751731      0.071609     -1.674509
  H       3.293291     -0.563699     -4.166300
  H      -0.795204     -3.198311     -0.169019
  H      -0.811134     -2.382401      2.425347
  H       1.682126     -1.561499      3.032220
  O       1.471013      2.380162      0.197812
  O       0.539548      0.957296      1.636667
  C       0.991797      2.108847      1.307341
  C       0.946916      3.156260      2.381370
  H       0.920168      4.153287      1.950085
  H       1.853037      3.080311      2.985666
  H       0.098377      3.011650      3.046000
  H       3.238046     -1.917243      0.884394
  H       1.690001     -2.908413     -1.114058
39
Coordinates from ORCA-job reaction4-IEIP_ts_guess_scan_5-10_orca E -1288.398403477856
  Ir      0.597347     -0.732452      0.482929
  C       0.054283     -2.821027      0.382837
  C       0.026699     -2.356900      1.745718
  C       2.182647     -2.133579      0.952191
  C       1.363118     -2.664253     -0.112554
  C       1.363685     -1.976867      2.087969
  N      -1.039125      0.132957     -0.510801
  C      -2.317825      0.406539      0.166623
  C      -3.103489      1.552101     -0.453815
  H      -3.933882      1.806522      0.203449
  H      -3.540625      1.293626     -1.419269
  H      -2.494529      2.448696     -0.571550
  C      -3.146292     -0.871373      0.230492
  H      -2.040776      0.693133      1.182222
  H      -4.063695     -0.687529      0.787957
  H      -3.425560     -1.211740     -0.767498
  H      -2.615989     -1.678110      0.733997
  C      -0.864033      0.382796     -1.754295
  C       0.469418      0.209252     -2.266368
  H      -1.670606      0.745384     -2.384872
  C       1.565214      0.331416     -1.420502
  C       2.764890      0.008575     -2.114794
  S       0.895714     -0.243763     -3.852707
  C       2.553327     -0.310481     -3.422091
  H       1.558748      1.281441     -0.599940
  H       3.750939      0.067209     -1.677429
  H       3.289918     -0.561199     -4.170423
  H      -0.789469     -3.199608     -0.175962
  H      -0.816833     -2.384921      2.419266
  H       1.673637     -1.563261      3.037122
  O       1.473956      2.377750      0.195518
  O       0.541097      0.957782      1.636283
  C       0.992798      2.109241      1.304816
  C       0.944583      3.159186      2.376223
  H       0.914809      4.154935      1.942152
  H       1.850960      3.087544      2.980622
  H       0.096479      3.013799      3.041196
  H       3.238641     -1.916737      0.895999
  H       1.699190     -2.906894     -1.109969
39
Coordinates from ORCA-job reaction4-IEIP_ts_guess_scan_5-10_orca E -1288.398406072540
  Ir      0.598446     -0.732937      0.483831
  C       0.057478     -2.821982      0.380206
  C       0.023258     -2.358349      1.743237
  C       2.182882     -2.133213      0.960104
  C       1.368597     -2.663983     -0.108548
  C       1.358299     -1.977675      2.092006
  N      -1.038235      0.132596     -0.509075
  C      -2.316738      0.404741      0.169307
  C      -3.100509      1.554359     -0.446247
  H      -3.930500      1.807419      0.212042
  H      -3.537881      1.300683     -1.412847
  H      -2.489885      2.450292     -0.560249
  C      -3.146871     -0.872404      0.226499
  H      -2.039847      0.686322      1.186312
  H      -4.064208     -0.690521      0.784735
  H      -3.426362     -1.207179     -0.773326
  H      -2.617564     -1.682548      0.725583
  C      -0.864654      0.382667     -1.752904
  C       0.468021      0.209687     -2.266777
  H      -1.672365      0.744858     -2.382245
  C       1.564839      0.328264     -1.421836
  C       2.763493      0.006126     -2.117914
  S       0.892696     -0.238970     -3.855073
  C       2.550214     -0.308879     -3.426061
  H       1.561454      1.277729     -0.599771
  H       3.750102      0.062511     -1.681547
  H       3.285965     -0.558217     -4.175688
  H      -0.783124     -3.201301     -0.182810
  H      -0.823320     -2.387435      2.412917
  H       1.663472     -1.564300      3.042817
  O       1.477930      2.375772      0.193425
  O       0.542762      0.958529      1.635633
  C       0.994385      2.109657      1.302346
  C       0.943069      3.161917      2.371221
  H       0.910320      4.156496      1.934638
  H       1.849820      3.094485      2.975523
  H       0.095471      3.015612      3.036594
  H       3.239041     -1.915935      0.909273
  H       1.709419     -2.905702     -1.104594
39
Coordinates from ORCA-job reaction4-IEIP_ts_guess_scan_5-10_orca E -1288.398408093924
  Ir      0.600215     -0.733447      0.484833
  C       0.062507     -2.823450      0.376431
  C       0.017813     -2.360369      1.739479
  C       2.183032     -2.132146      0.972517
  C       1.377132     -2.663657     -0.101957
  C       1.349486     -1.978265      2.098276
  N      -1.037179      0.131709     -0.506686
  C      -2.315535      0.401778      0.172860
  C      -3.096502      1.557358     -0.435315
  H      -3.926177      1.808140      0.224218
  H      -3.533883      1.310957     -1.403766
  H      -2.483502      2.452394     -0.543365
  C      -3.148145     -0.874164      0.220191
  H      -2.038898      0.675761      1.191973
  H      -4.064932     -0.695457      0.780354
  H      -3.428693     -1.200132     -0.782255
  H      -2.619853     -1.689497      0.711901
  C      -0.865586      0.382430     -1.750750
  C       0.465967      0.210039     -2.267434
  H      -1.674771      0.744515     -2.378288
  C       1.564327      0.324169     -1.423980
  C       2.761388      0.003319     -2.123270
  S       0.887567     -0.232954     -3.858295
  C       2.545386     -0.306748     -3.432212
  H       1.565218      1.273159     -0.599829
  H       3.748904      0.057046     -1.688629
  H       3.279723     -0.554343     -4.183797
  H      -0.773168     -3.204196     -0.192894
  H      -0.833458     -2.391157      2.403117
  H       1.646938     -1.564887      3.051549
  O       1.484260      2.373343      0.190663
  O       0.545347      0.959802      1.634380
  C       0.997274      2.110188      1.298947
  C       0.942094      3.165606      2.364372
  H       0.904839      4.158611      1.924506
  H       1.849776      3.104256      2.967910
  H       0.095631      3.017806      3.030801
  H       3.239393     -1.914233      0.929937
  H       1.725432     -2.904094     -1.095754
39
Coordinates from ORCA-job reaction4-IEIP_ts_guess_scan_5-10_orca E -1288.398409100362
  Ir      0.601846     -0.733756      0.485463
  C       0.068158     -2.824921      0.372402
  C       0.012137     -2.362351      1.735307
  C       2.183071     -2.130062      0.985466
  C       1.386406     -2.663020     -0.094977
  C       1.339861     -1.978012      2.104601
  N      -1.036638      0.130446     -0.504610
  C      -2.314882      0.398625      0.175973
  C      -3.093066      1.559953     -0.424911
  H      -3.922686      1.808244      0.235605
  H      -3.530161      1.320837     -1.395298
  H      -2.477870      2.454204     -0.526758
  C      -3.149923     -0.876059      0.213787
  H      -2.038466      0.665126      1.197112
  H      -4.065622     -0.700717      0.776771
  H      -3.432394     -1.192877     -0.791056
  H      -2.622141     -1.696628      0.697347
  C      -0.866775      0.382019     -1.748689
  C       0.463755      0.209986     -2.268113
  H      -1.677120      0.744480     -2.374582
  C       1.563606      0.320787     -1.426235
  C       2.759091      0.000951     -2.128810
  S       0.881899     -0.228397     -3.861050
  C       2.540446     -0.305053     -3.438211
  H       1.568300      1.269509     -0.600449
  H       3.747463      0.052531     -1.695843
  H       3.273297     -0.551227     -4.191698
  H      -0.762211     -3.207510     -0.203389
  H      -0.844064     -2.395099      2.392486
  H       1.628796     -1.564208      3.060331
  O       1.490800      2.371222      0.188259
  O       0.547688      0.961158      1.632757
  C       1.000573      2.110522      1.295857
  C       0.942826      3.168767      2.358304
  H       0.901004      4.160374      1.915644
  H       1.851998      3.113123      2.960153
  H       0.098096      3.019522      3.026560
  H       3.239533     -1.911289      0.951534
  H       1.742738     -2.902011     -1.086300
39
Coordinates from ORCA-job reaction4-IEIP_ts_guess_scan_5-10_orca E -1288.398409261873
  Ir      0.603072     -0.733948      0.485748
  C       0.074457     -2.826364      0.367834
  C       0.006404     -2.364426      1.730525
  C       2.183046     -2.126862      0.998531
  C       1.396375     -2.661866     -0.088030
  C       1.329698     -1.976989      2.110659
  N      -1.036766      0.129024     -0.503002
  C      -2.314876      0.395533      0.178587
  C      -3.090501      1.562091     -0.415463
  H      -3.920299      1.807714      0.245814
  H      -3.527081      1.329945     -1.387758
  H      -2.473490      2.455764     -0.511159
  C      -3.152104     -0.877965      0.207674
  H      -2.038635      0.655139      1.201537
  H      -4.066254     -0.706048      0.774204
  H      -3.437229     -1.185773     -0.799218
  H      -2.624333     -1.703550      0.682719
  C      -0.868369      0.381477     -1.746963
  C       0.461302      0.209485     -2.268744
  H      -1.679496      0.744570     -2.371554
  C       1.562502      0.318241     -1.428417
  C       2.756590     -0.000817     -2.133976
  S       0.876019     -0.226049     -3.863063
  C       2.535587     -0.304270     -3.443457
  H       1.570223      1.266883     -0.601830
  H       3.745688      0.049439     -1.702485
  H       3.266983     -0.549429     -4.198666
  H      -0.750258     -3.211143     -0.214561
  H      -0.854907     -2.399398      2.380885
  H       1.609477     -1.562389      3.068793
  O       1.497031      2.369384      0.186187
  O       0.549547      0.962573      1.630882
  C       1.004152      2.110705      1.293191
  C       0.945618      3.171290      2.353335
  H       0.899037      4.161697      1.908419
  H       1.857041      3.120798      2.952235
  H       0.103471      3.020700      3.024501
  H       3.239475     -1.906893      0.973552
  H       1.761170     -2.899083     -1.076726
39
Coordinates from ORCA-job reaction4-IEIP_ts_guess_scan_5-10_orca E -1288.398409191584
  Ir      0.603530     -0.734012      0.485756
  C       0.080260     -2.827505      0.363397
  C       0.001600     -2.366333      1.725917
  C       2.182952     -2.123173      1.009406
  C       1.405245     -2.660249     -0.082450
  C       1.320855     -1.975578      2.115391
  N      -1.037462      0.127873     -0.502138
  C      -2.315366      0.393193      0.180360
  C      -3.089241      1.563418     -0.408717
  H      -3.919313      1.806776      0.253060
  H      -3.525299      1.336480     -1.382464
  H      -2.471161      2.456837     -0.499679
  C      -3.154063     -0.879476      0.203270
  H      -2.039181      0.647985      1.204521
  H      -4.066684     -0.710282      0.773072
  H      -3.441774     -1.180442     -0.804947
  H      -2.625963     -1.708802      0.671453
  C      -0.870168      0.380889     -1.746011
  C       0.458955      0.208780     -2.269324
  H      -1.681694      0.744509     -2.369830
  C       1.561094      0.316695     -1.430156
  C       2.754267     -0.002034     -2.137598
  S       0.871285     -0.225584     -3.864303
  C       2.531724     -0.304280     -3.447015
  H       1.570604      1.265476     -0.603735
  H       3.743787      0.047613     -1.706987
  H       3.262029     -0.548873     -4.203445
  H      -0.739403     -3.214374     -0.224700
  H      -0.864139     -2.403385      2.370261
  H       1.592539     -1.560109      3.075499
  O       1.501704      2.368016      0.184615
  O       0.550428      0.963794      1.629140
  C       1.007264      2.110770      1.291291
  C       0.949846      3.172722      2.350235
  H       0.898994      4.162319      1.903943
  H       1.863919      3.125940      2.945395
  H       0.110739      3.021052      3.024918
  H       3.239224     -1.901836      0.992189
  H       1.777437     -2.895622     -1.068848
39
Coordinates from ORCA-job reaction4-IEIP_ts_guess_scan_5-10_orca E -1288.398409337920
  Ir      0.603352     -0.733994      0.485648
  C       0.084862     -2.828332      0.359641
  C      -0.001955     -2.367955      1.722074
  C       2.182802     -2.119805      1.017355
  C       1.412079     -2.658536     -0.078555
  C       1.314141     -1.974315      2.118641
  N      -1.038374      0.127184     -0.501882
  C      -2.316043      0.391779      0.181353
  C      -3.089040      1.564044     -0.404806
  H      -3.919343      1.805815      0.257281
  H      -3.524716      1.340265     -1.379447
  H      -2.470537      2.457457     -0.492820
  C      -3.155488     -0.880455      0.200787
  H      -2.039804      0.643979      1.206122
  H      -4.066987     -0.712997      0.772898
  H      -3.445091     -1.177295     -0.808104
  H      -2.627016     -1.712030      0.664575
  C      -0.871874      0.380336     -1.745781
  C       0.456967      0.208086     -2.269855
  H      -1.683601      0.744120     -2.369258
  C       1.559636      0.315870     -1.431366
  C       2.752390     -0.002678     -2.139631
  S       0.868179     -0.226140     -3.865044
  C       2.529085     -0.304676     -3.448963
  H       1.569827      1.264995     -0.605716
  H       3.742079      0.046931     -1.709404
  H       3.258738     -0.548995     -4.206104
  H      -0.730820     -3.216916     -0.232833
  H      -0.871071     -2.406673      2.361762
  H       1.579630     -1.558175      3.080206
  O       1.504474      2.367190      0.183418
  O       0.550543      0.964757      1.627793
  C       1.009598      2.110852      1.290084
  C       0.954436      3.173218      2.348794
  H       0.899866      4.162388      1.901950
  H       1.871210      3.128811      2.939967
  H       0.118454      3.020541      3.027078
  H       3.238866     -1.897167      1.006088
  H       1.789916     -2.892297     -1.063206
39
Coordinates from ORCA-job reaction4-IEIP_ts_guess_scan_5-10_orca E -1288.398409850547
  Ir      0.602884     -0.733918      0.485572
  C       0.087432     -2.828797      0.357421
  C      -0.003861     -2.368990      1.719838
  C       2.182647     -2.117678      1.021563
  C       1.415798     -2.657284     -0.076588
  C       1.310481     -1.973613      2.120290
  N      -1.039061      0.126956     -0.501989
  C      -2.316548      0.391291      0.181655
  C      -3.089390      1.564146     -0.403570
  H      -3.919776      1.805254      0.258667
  H      -3.524922      1.341443     -1.378515
  H      -2.470864      2.457640     -0.490551
  C      -3.156163     -0.880830      0.200086
  H      -2.040200      0.642870      1.206533
  H      -4.067232     -0.713969      0.773066
  H      -3.446508     -1.176356     -0.808974
  H      -2.627533     -1.713159      0.662344
  C      -0.873027      0.379897     -1.746018
  C       0.455721      0.207631     -2.270291
  H      -1.684904      0.743477     -2.369403
  C       1.558549      0.315492     -1.431999
  C       2.751285     -0.002879     -2.140278
  S       0.866940     -0.226590     -3.865542
  C       2.527854     -0.304848     -3.449637
  H       1.568618      1.265004     -0.607100
  H       3.740973      0.046872     -1.710076
  H       3.257311     -0.549002     -4.207025
  H      -0.725964     -3.218421     -0.237499
  H      -0.874833     -2.408648      2.356940
  H       1.572607     -1.557183      3.082657
  O       1.505261      2.366899      0.182614
  O       0.550251      0.965306      1.627083
  C       1.010801      2.110952      1.289510
  C       0.957850      3.173050      2.348589
  H       0.900559      4.162128      1.901840
  H       1.876739      3.129838      2.936552
  H       0.124336      3.019433      3.029654
  H       3.238544     -1.894140      1.013608
  H       1.796715     -2.890083     -1.060290
39
Coordinates from ORCA-job reaction4-IEIP_ts_guess_scan_5-10_orca E -1288.398410393039
  Ir      0.602484     -0.733857      0.485584
  C       0.088462     -2.829062      0.356508
  C      -0.004688     -2.369531      1.718925
  C       2.182505     -2.116740      1.023361
  C       1.417270     -2.656644     -0.075742
  C       1.308917     -1.973413      2.121028
  N      -1.039390      0.126937     -0.502139
  C      -2.316794      0.391236      0.181643
  C      -3.089726      1.564087     -0.403533
  H      -3.920074      1.805109      0.258785
  H      -3.525281      1.341462     -1.378482
  H      -2.471233      2.457609     -0.490459
  C      -3.156372     -0.880889      0.200087
  H      -2.040365      0.642953      1.206459
  H      -4.067500     -0.714027      0.772981
  H      -3.446648     -1.176461     -0.808979
  H      -2.627812     -1.713242      0.662375
  C      -0.873599      0.379581     -1.746313
  C       0.455105      0.207390     -2.270603
  H      -1.685652      0.742807     -2.369653
  C       1.557921      0.315236     -1.432274
  C       2.750792     -0.002822     -2.140340
  S       0.866752     -0.226544     -3.865953
  C       2.527459     -0.304636     -3.449805
  H       1.567578      1.265025     -0.607770
  H       3.740446      0.047043     -1.710088
  H       3.256963     -0.548580     -4.207225
  H      -0.723899     -3.219201     -0.239481
  H      -0.876445     -2.409566      2.354928
  H       1.569670     -1.556958      3.083757
  O       1.504933      2.366909      0.182017
  O       0.550020      0.965563      1.626841
  C       1.011219      2.111069      1.289234
  C       0.959812      3.172750      2.348761
  H       0.900473      4.161866      1.902329
  H       1.880215      3.130305      2.934401
  H       0.128082      3.018199      3.031763
  H       3.238305     -1.892710      1.016851
  H       1.799468     -2.889066     -1.059042
