! Opt PBEh-3c
%geom Constraints
{ B 0 20 2.3 C }
{ B 24 30 1.4428571428571428 C }
    end
end
%output 
xyzfile=True 
end 
%scf 
maxiter 250 
end
%output
Print[P_Hirshfeld] = 1
end
% maxcore
4000
*xyz 1 1
Ir   0.60881681  -0.71190767   0.43766382 
C    0.06196589  -2.80392604   0.35270479 
C    0.10031656  -2.34466114   1.71684443 
C    2.21272441  -2.11583267   0.81986280 
C    1.34386655  -2.64494197  -0.20656482 
C    1.45246079  -1.96433475   1.99577630 
N   -1.04650076   0.15807261  -0.52553474 
C   -2.31444341   0.46040686   0.15654898 
C   -3.11368747   1.56920215  -0.50961327 
H   -3.93906616   1.84966593   0.14334474 
H   -3.55901382   1.26240673  -1.45726627 
H   -2.51227025   2.46347829  -0.67513400 
C   -3.13300193  -0.81745181   0.29862268 
H   -2.01992756   0.79724509   1.15160258 
H   -4.04288565  -0.60836380   0.85922428 
H   -3.42480743  -1.21153482  -0.67569998 
H   -2.59036353  -1.59240862   0.83792674 
C   -0.86705074   0.38362342  -1.77063451 
C    0.47590153   0.17274235  -2.25430830 
H   -1.65895033   0.74920977  -2.41753304 
C    1.56200458   0.37546278  -1.40571301 
C    2.77355940  -0.00342207  -2.05578491 
S    0.92265207  -0.43936942  -3.77597463 
C    2.57942929  -0.45560559  -3.32306628 
H    1.52551505   1.29962238  -0.65085403 
H    3.75290817   0.10905266  -1.61386282 
H    3.32395051  -0.77666404  -4.03578172 
H   -0.80930512  -3.17861985  -0.16509647 
H   -0.71014290  -2.37349660   2.42981149 
H    1.80845582  -1.55430258   2.93006545 
O    1.36239767   2.45286976   0.22474776 
O    0.53436559   0.93880926   1.63548660 
C    0.93275619   2.12541932   1.33090942 
C    0.87330350   3.11919915   2.45676155 
H    0.84797980   4.13548944   2.07326233 
H    1.77094297   3.01538487   3.06946206 
H    0.01765044   2.94273155   3.10507594 
H    3.26399636  -1.89516470   0.71172062 
H    1.63286712  -2.88889630  -1.21826253 
*
