! Opt PBEh-3c
%geom Constraints
{ B 0 20 2.0428571428571427 C }
{ B 24 30 1.4428571428571428 C }
    end
end
%output 
xyzfile=True 
end 
%scf 
maxiter 250 
end
%output
Print[P_Hirshfeld] = 1
end
% maxcore
4000
*xyz 1 1
Ir   0.62599146  -0.72024179   0.40273016 
C    0.15214798  -2.84093529   0.32133487 
C   -0.04181264  -2.39007350   1.67489626 
C    2.17843336  -2.06366936   1.11411792 
C    1.51023378  -2.65337371  -0.01451622 
C    1.21245986  -1.93446192   2.14837337 
N   -1.06551166   0.13090900  -0.51463977 
C   -2.32998962   0.34543703   0.20381954 
C   -3.12873842   1.53800890  -0.30224923 
H   -3.95366754   1.72505244   0.38342034 
H   -3.57304709   1.36487348  -1.28338793 
H   -2.52591960   2.44547593  -0.34375172 
C   -3.15533205  -0.93626127   0.16166524 
H   -2.03778534   0.54292571   1.23619682 
H   -4.05484406  -0.81721429   0.76423247 
H   -3.46513121  -1.17095387  -0.85747987 
H   -2.60686280  -1.79000887   0.55608757 
C   -0.91792177   0.47066098  -1.74192762 
C    0.40060860   0.27882590  -2.26760208 
H   -1.72338158   0.90218113  -2.32706600 
C    1.43607098   0.07454066  -1.34721159 
C    2.65235718  -0.19563777  -2.05613899 
S    0.88951566   0.15995760  -3.88325407 
C    2.50275194  -0.17758931  -3.40738905 
H    1.60617806   1.11655962  -0.66441209 
H    3.60986067  -0.33397590  -1.57501383 
H    3.26293978  -0.32105801  -4.16013870 
H   -0.60128245  -3.27308413  -0.32094747 
H   -0.95490744  -2.44080523   2.24806552 
H    1.39176240  -1.49167996   3.11797700 
O    1.69166508   2.34084706   0.12113073 
O    0.56753767   1.01674733   1.51371936 
C    1.10658370   2.12968725   1.19366419 
C    1.03208074   3.22299852   2.22102211 
H    0.95208168   4.19501366   1.74032620 
H    1.95557974   3.22328549   2.80261424 
H    0.20279445   3.07498668   2.90750978 
H    3.23074604  -1.83945153   1.19529236 
H    1.96512448  -2.90930872  -0.96032966 
*
