39
Generated by autodE on: 2023-08-15. E = -1288.401446 Ha
Ir    0.60870  -0.72815   0.45918
C     0.11200  -2.83371   0.35403
C    -0.04897  -2.36746   1.70704
C     2.16699  -2.09183   1.10731
C     1.46160  -2.65924  -0.01397
C     1.23273  -1.94317   2.15953
N    -1.05394   0.12305  -0.50557
C    -2.33218   0.34741   0.18905
C    -3.11932   1.53554  -0.34545
H    -3.95181   1.73737   0.32694
H    -3.55266   1.34979  -1.32912
H    -2.51171   2.43940  -0.39391
C    -3.16052  -0.93196   0.15119
H    -2.05844   0.55929   1.22357
H    -4.07230  -0.80078   0.73245
H    -3.44975  -1.18301  -0.87016
H    -2.62380  -1.78077   0.57194
C    -0.89486   0.43043  -1.73933
C     0.42712   0.26339  -2.27155
H    -1.70713   0.82697  -2.34100
C     1.50712   0.18628  -1.39860
C     2.70306  -0.09407  -2.12095
S     0.86003   0.02921  -3.89893
C     2.50121  -0.19641  -3.46447
H     1.62104   1.17054  -0.58742
H     3.68216  -0.15734  -1.66886
H     3.23840  -0.37239  -4.23309
H    -0.66433  -3.24504  -0.27463
H    -0.94886  -2.40822   2.30199
H     1.44182  -1.50821   3.12675
O     1.68852   2.30558   0.17935
O     0.54381   1.00214   1.57345
C     1.09529   2.10709   1.25288
C     1.03061   3.20786   2.27043
H     0.92364   4.17370   1.78217
H     1.96953   3.22975   2.82644
H     0.22152   3.05447   2.97922
H     3.22194  -1.87021   1.15621
H     1.89110  -2.90809  -0.97338
