! Opt PBEh-3c
%geom Constraints
{ B 0 20 2.1714285714285713 C }
{ B 24 30 1.4428571428571428 C }
    end
end
%output 
xyzfile=True 
end 
%scf 
maxiter 250 
end
%output
Print[P_Hirshfeld] = 1
end
% maxcore
4000
*xyz 1 1
Ir   0.62582995  -0.71377095   0.42696479 
C    0.10650217  -2.82134324   0.34146180 
C    0.04221924  -2.36061881   1.70256295 
C    2.21141905  -2.09666174   0.95232497 
C    1.42565063  -2.65179677  -0.12344963 
C    1.35769525  -1.94791828   2.06811013 
N   -1.04649787   0.13934807  -0.52081192 
C   -2.31005151   0.40883549   0.18284989 
C   -3.09349622   1.57735945  -0.39639101 
H   -3.91449423   1.81961983   0.27696457 
H   -3.54272002   1.34855326  -1.36374568 
H   -2.47818846   2.47180882  -0.49596127 
C   -3.14759439  -0.86442205   0.22453970 
H   -2.01336315   0.66507994   1.20075770 
H   -4.04840209  -0.69333493   0.81222556 
H   -3.45538543  -1.16768469  -0.77698625 
H   -2.60951848  -1.69198002   0.68434688 
C   -0.89050446   0.39883562  -1.76487163 
C    0.43976509   0.20035301  -2.27337963 
H   -1.69524700   0.78283187  -2.38414915 
C    1.50732973   0.22510267  -1.37429470 
C    2.72299184  -0.09295321  -2.05368278 
S    0.90208760  -0.19218879  -3.85681908 
C    2.54480751  -0.33783077  -3.37936338 
H    1.53248520   1.20385711  -0.64661560 
H    3.69548391  -0.08411651  -1.58334417 
H    3.29616167  -0.57323181  -4.11775632 
H   -0.71734196  -3.21867380  -0.23377269 
H   -0.81605779  -2.39702491   2.35640204 
H    1.63776334  -1.52124433   3.02083442 
O    1.45329240   2.41377287   0.16152899 
O    0.54972604   0.96932759   1.59527475 
C    0.98278498   2.13204467   1.26809217 
C    0.91844426   3.17052727   2.35192032 
H    0.89103931   4.17101125   1.92883038 
H    1.81678418   3.09395936   2.96742598 
H    0.06231472   3.01597112   3.00468108 
H    3.26804693  -1.87828475   0.92739898 
H    1.78760810  -2.90392894  -1.10936307 
*
