! Opt PBEh-3c
%geom Constraints
{ B 0 20 2.5142857142857142 C }
{ B 24 30 1.3714285714285714 C }
    end
end
%output 
xyzfile=True 
end 
%scf 
maxiter 250 
end
%output
Print[P_Hirshfeld] = 1
end
% maxcore
4000
*xyz 1 1
Ir   0.57263387  -0.73526970   0.49191334 
C    0.01485606  -2.81182479   0.36146548 
C    0.09347178  -2.37107875   1.73320825 
C    2.18201513  -2.15150703   0.79030638 
C    1.28158730  -2.64788736  -0.22641585 
C    1.46192334  -2.02005820   1.98994519 
N   -1.04101680   0.16075467  -0.51058297 
C   -2.31867177   0.48970830   0.14229271 
C   -3.12905904   1.54065885  -0.59941857 
H   -3.96334378   1.84891046   0.02919950 
H   -3.56252871   1.16734987  -1.52864087 
H   -2.54188303   2.43314790  -0.81803059 
C   -3.12398416  -0.78420730   0.36638097 
H   -2.03526513   0.89766241   1.11411974 
H   -4.04406045  -0.54549702   0.89767976 
H   -3.39836030  -1.25141782  -0.58038357 
H   -2.58331557  -1.51163671   0.97025082 
C   -0.83159579   0.36610476  -1.75395836 
C    0.51905081   0.16031803  -2.22762875 
H   -1.61480883   0.71649580  -2.42040359 
C    1.62519703   0.52312840  -1.46959746 
C    2.82569744   0.12925793  -2.12593876 
S    0.93780821  -0.58435906  -3.70875370 
C    2.60744817  -0.46903671  -3.32809045 
H    1.53858851   1.39930664  -0.64651726 
H    3.81477525   0.33259800  -1.74175736 
H    3.34167534  -0.83148962  -4.03172173 
H   -0.87459238  -3.16645810  -0.13926222 
H   -0.69839732  -2.40758217   2.46699113 
H    1.84794013  -1.63733012   2.92378837 
O    1.33241405   2.42782037   0.25894157 
O    0.53759400   0.90836572   1.68626694 
C    0.92297435   2.09840212   1.37219321 
C    0.87620726   3.09186568   2.49791387 
H    0.83119344   4.10708599   2.11327340 
H    1.78832705   3.00004174   3.09095192 
H    0.03717087   2.90697074   3.16525967 
H    3.22745859  -1.92047863   0.64880374 
H    1.54224511  -2.85964523  -1.25330380 
*
