! Opt PBEh-3c
%geom Constraints
{ B 0 20 2.257142857142857 C }
{ B 24 30 1.4428571428571428 C }
    end
end
%output 
xyzfile=True 
end 
%scf 
maxiter 250 
end
%output
Print[P_Hirshfeld] = 1
end
% maxcore
4000
*xyz 1 1
Ir   0.61772985  -0.71267028   0.43561267 
C    0.08968415  -2.81254540   0.34058072 
C    0.07050509  -2.35215734   1.70440260 
C    2.21565021  -2.10266338   0.89008659 
C    1.39245033  -2.64474630  -0.16600015 
C    1.40410501  -1.95569413   2.03394870 
N   -1.04500865   0.14968620  -0.52063152 
C   -2.31083621   0.43680993   0.17214929 
C   -3.09690238   1.58164483  -0.44799485 
H   -3.91985746   1.84465055   0.21517100 
H   -3.54403641   1.31823642  -1.40757975 
H   -2.48418412   2.47413757  -0.57695876 
C   -3.14223927  -0.83811379   0.25691449 
H   -2.01563019   0.72776034   1.18118222 
H   -4.04657623  -0.64900816   0.83343518 
H   -3.44375385  -1.18057944  -0.73382054 
H   -2.60283835  -1.64457587   0.75147799 
C   -0.87858927   0.38617043  -1.76631008 
C    0.45822860   0.18082065  -2.26426992 
H   -1.67818451   0.75655782  -2.40078446 
C    1.54231965   0.32100923  -1.39922803 
C    2.75187071  -0.03928634  -2.06480514 
S    0.90258503  -0.35679140  -3.81259322 
C    2.55673242  -0.42037736  -3.35529325 
H    1.52818345   1.26188412  -0.65163270 
H    3.73117230   0.03593821  -1.61499831 
H    3.30006875  -0.71347344  -4.08112647 
H   -0.75569556  -3.19973778  -0.20984111 
H   -0.76705935  -2.38698352   2.38494544 
H    1.71754331  -1.53788691   2.98009804 
O    1.39400712   2.43951682   0.19597761 
O    0.54267112   0.95166121   1.61928955 
C    0.95144449   2.12992734   1.30363060 
C    0.88877350   3.14206610   2.41255948 
H    0.85325384   4.15167587   2.01243532 
H    1.79113260   3.05635139   3.02106159 
H    0.03799759   2.96889015   3.06789402 
H    3.27003057  -1.88021375   0.82682128 
H    1.72262213  -2.88870066  -1.16506607 
*
