39
Generated by autodE on: 2023-08-15. E = -1288.399706 Ha
Ir    0.60495  -0.73649   0.48254
C     0.08075  -2.83098   0.37437
C    -0.01585  -2.36594   1.73371
C     2.17534  -2.12301   1.04255
C     1.41272  -2.66778  -0.05499
C     1.29589  -1.96823   2.13543
N    -1.04026   0.12113  -0.50406
C    -2.31926   0.37318   0.18130
C    -3.09576   1.55115  -0.38942
H    -3.92676   1.78123   0.27591
H    -3.53067   1.33945  -1.36709
H    -2.48015   2.44769  -0.46535
C    -3.15634  -0.90078   0.18241
H    -2.04547   0.61303   1.20970
H    -4.07031  -0.74235   0.75326
H    -3.44179  -1.18549  -0.83116
H    -2.62810  -1.73724   0.63732
C    -0.87589   0.39177  -1.74549
C     0.45046   0.22672  -2.27282
H    -1.68907   0.76425  -2.36159
C     1.54413   0.26315  -1.41684
C     2.74034  -0.02837  -2.13060
S     0.87338  -0.11301  -3.88714
C     2.52698  -0.24318  -3.45934
H     1.57768   1.24291  -0.59234
H     3.72608  -0.02249  -1.68872
H     3.26162  -0.45071  -4.22260
H    -0.73017  -3.22227  -0.22284
H    -0.88982  -2.39948   2.36681
H     1.55468  -1.54538   3.09590
O     1.54275   2.34895   0.16838
O     0.55140   0.97590   1.61435
C     1.02989   2.10964   1.27416
C     0.98138   3.18700   2.31700
H     0.93414   4.17032   1.85649
H     1.89738   3.14423   2.90941
H     0.14324   3.04886   2.99549
H     3.23257  -1.90607   1.04100
H     1.79729  -2.91212  -1.03436
