39
Generated by autodE on: 2023-08-13. E = -1288.400585 Ha
Ir    0.62467  -0.70940   0.42309
C     0.10320  -2.81407   0.33093
C     0.07304  -2.35523   1.69463
C     2.22251  -2.09408   0.89362
C     1.40921  -2.64257  -0.16646
C     1.40068  -1.94961   2.03162
N    -1.04576   0.15098  -0.52308
C    -2.30762   0.43800   0.17627
C    -3.09263   1.58871  -0.43422
H    -3.91322   1.84920   0.23287
H    -3.54287   1.33257  -1.39430
H    -2.47804   2.48051  -0.55891
C    -3.14178  -0.83552   0.25643
H    -2.00738   0.72183   1.18577
H    -4.04095  -0.64903   0.84180
H    -3.45191  -1.16858  -0.73483
H    -2.60018  -1.64755   0.73938
C    -0.88435   0.38989  -1.76905
C     0.45095   0.17842  -2.26710
H    -1.68370   0.76512  -2.40075
C     1.52896   0.29032  -1.38731
C     2.74164  -0.06660  -2.05207
S     0.90243  -0.33845  -3.81799
C     2.55334  -0.42369  -3.34982
H     1.52498   1.24064  -0.66342
H     3.71804  -0.00577  -1.59384
H     3.29932  -0.71009  -4.07558
H    -0.73668  -3.20557  -0.22484
H    -0.76908  -2.39290   2.36927
H     1.70534  -1.52857   2.97922
O     1.38679   2.45073   0.18743
O     0.54520   0.95488   1.60811
C     0.94751   2.13635   1.29414
C     0.88020   3.14503   2.40655
H     0.84193   4.15567   2.00932
H     1.78195   3.06023   3.01603
H     0.02914   2.96743   3.06038
H     3.27734  -1.87156   0.83991
H     1.74718  -2.88844  -1.16244
