39
Coordinates from ORCA-job reaction4-IEIP_ts_guess_scan_13-2_orca E -1288.395329377309
  Ir      0.629026     -0.707817      0.387017
  C       0.152239     -2.830689      0.310967
  C      -0.011007     -2.378037      1.667107
  C       2.197274     -2.053787      1.054659
  C       1.501026     -2.641833     -0.059014
  C       1.257141     -1.922930      2.111577
  N      -1.068081      0.140095     -0.524758
  C      -2.329345      0.362340      0.196858
  C      -3.135760      1.542202     -0.326177
  H      -3.957194      1.738734      0.361109
  H      -3.585849      1.348532     -1.300854
  H      -2.537101      2.451204     -0.388503
  C      -3.149558     -0.923370      0.182718
  H      -2.031355      0.578326      1.223840
  H      -4.046981     -0.795583      0.786560
  H      -3.462729     -1.179107     -0.830308
  H      -2.596080     -1.766657      0.592307
  C      -0.922730      0.466273     -1.750620
  C       0.397108      0.263281     -2.257616
  H      -1.724176      0.893031     -2.344706
  C       1.424449      0.083850     -1.319977
  C       2.646208     -0.202680     -2.015920
  S       0.896656      0.095318     -3.864386
  C       2.507229     -0.225237     -3.367420
  H       1.575995      1.108897     -0.642042
  H       3.600975     -0.322563     -1.524497
  H       3.273017     -0.388233     -4.110483
  H      -0.617595     -3.259314     -0.314074
  H      -0.910697     -2.428498      2.261159
  H       1.459991     -1.479458      3.076218
  O       1.658528      2.362324      0.124255
  O       0.561103      1.013826      1.514412
  C       1.089168      2.136340      1.199212
  C       1.016106      3.211555      2.246449
  H       1.015693      4.196747      1.787312
  H       1.900499      3.144229      2.882452
  H       0.142106      3.093980      2.882253
  H       3.250919     -1.827470      1.108830
  H       1.933154     -2.898630     -1.015173
39
Coordinates from ORCA-job reaction4-IEIP_ts_guess_scan_13-2_orca E -1288.395413556439
  Ir      0.627386     -0.701812      0.383183
  C       0.155113     -2.828485      0.311178
  C      -0.008072     -2.377097      1.667654
  C       2.198146     -2.046220      1.053850
  C       1.503318     -2.636979     -0.059181
  C       1.257856     -1.917699      2.110675
  N      -1.074379      0.139503     -0.525890
  C      -2.335200      0.361779      0.196625
  C      -3.143620      1.538966     -0.329314
  H      -3.965210      1.736022      0.357603
  H      -3.593505      1.341915     -1.303412
  H      -2.546486      2.448811     -0.394257
  C      -3.153728     -0.925013      0.186729
  H      -2.036889      0.581114      1.222844
  H      -4.050961     -0.796817      0.790770
  H      -3.467242     -1.184041     -0.825368
  H      -2.598887     -1.766434      0.598318
  C      -0.928011      0.462231     -1.757311
  C       0.394522      0.260804     -2.267056
  H      -1.730520      0.885771     -2.352195
  C       1.420750      0.084162     -1.327398
  C       2.643870     -0.202741     -2.021852
  S       0.896539      0.092353     -3.873211
  C       2.506308     -0.229067     -3.373364
  H       1.576489      1.127237     -0.665808
  H       3.598545     -0.319542     -1.529350
  H       3.273133     -0.393886     -4.114860
  H      -0.613771     -3.259840     -0.313191
  H      -0.906977     -2.430502      2.262548
  H       1.459905     -1.473901      3.075337
  O       1.719271      2.336120      0.160822
  O       0.549184      1.019606      1.515515
  C       1.107367      2.130699      1.216611
  C       1.019878      3.212725      2.255368
  H       1.054266      4.195312      1.791882
  H       1.880803      3.131721      2.921278
  H       0.122709      3.115346      2.861500
  H       3.251460     -1.818416      1.108370
  H       1.936014     -2.894514     -1.014904
39
Coordinates from ORCA-job reaction4-IEIP_ts_guess_scan_13-2_orca E -1288.394764677134
  Ir      0.636269     -0.707636      0.384495
  C       0.153252     -2.837665      0.309523
  C      -0.005128     -2.396151      1.669553
  C       2.199350     -2.067696      1.053371
  C       1.501808     -2.650767     -0.061540
  C       1.260070     -1.942056      2.111319
  N      -1.064407      0.144610     -0.513101
  C      -2.324405      0.368129      0.209845
  C      -3.124349      1.554230     -0.308929
  H      -3.947098      1.750444      0.376776
  H      -3.571770      1.367512     -1.286210
  H      -2.521917      2.461223     -0.364615
  C      -3.150813     -0.913408      0.187985
  H      -2.026856      0.577409      1.238436
  H      -4.048540     -0.784785      0.791209
  H      -3.463878     -1.162320     -0.826804
  H      -2.602017     -1.761580      0.593835
  C      -0.908520      0.479854     -1.750328
  C       0.418211      0.275350     -2.268318
  H      -1.708018      0.913898     -2.341510
  C       1.438423      0.067074     -1.327123
  C       2.658840     -0.234040     -2.023140
  S       0.922986      0.122227     -3.875530
  C       2.524690     -0.239813     -3.374952
  H       1.634088      1.132951     -0.684283
  H       3.610592     -0.372199     -1.530191
  H       3.290812     -0.409900     -4.115820
  H      -0.617901     -3.263849     -0.315658
  H      -0.902628     -2.451010      2.266211
  H       1.464963     -1.505416      3.078637
  O       1.529918      2.380238      0.089362
  O       0.554264      1.011073      1.535423
  C       1.033514      2.146231      1.199639
  C       0.984735      3.224490      2.243721
  H       0.924568      4.206435      1.781408
  H       1.906173      3.190745      2.827629
  H       0.153121      3.080811      2.928698
  H       3.254115     -1.847181      1.109777
  H       1.932851     -2.908274     -1.018061
39
Coordinates from ORCA-job reaction4-IEIP_ts_guess_scan_13-2_orca E -1288.395658212760
  Ir      0.629016     -0.708174      0.385655
  C       0.146912     -2.834877      0.319386
  C      -0.011237     -2.385054      1.676700
  C       2.193954     -2.060740      1.057656
  C       1.495291     -2.649166     -0.053849
  C       1.255690     -1.929177      2.116085
  N      -1.070053      0.138520     -0.520456
  C      -2.330952      0.360645      0.200364
  C      -3.135121      1.541849     -0.323053
  H      -3.958526      1.737959      0.361968
  H      -3.582015      1.349741     -1.299509
  H      -2.535709      2.450571     -0.382341
  C      -3.152240     -0.924288      0.183592
  H      -2.033959      0.575030      1.227956
  H      -4.050377     -0.796616      0.786406
  H      -3.464286     -1.178489     -0.830164
  H      -2.599941     -1.768549      0.592867
  C      -0.920755      0.467500     -1.752442
  C       0.402533      0.267732     -2.265928
  H      -1.722607      0.896337     -2.344250
  C       1.425476      0.072922     -1.325721
  C       2.650575     -0.207867     -2.020765
  S       0.907780      0.116220     -3.872615
  C       2.516997     -0.211257     -3.372889
  H       1.590082      1.124421     -0.667264
  H       3.603867     -0.332515     -1.527434
  H       3.286038     -0.365043     -4.114482
  H      -0.624792     -3.263660     -0.303254
  H      -0.908919     -2.435610      2.273606
  H       1.461237     -1.486509      3.080512
  O       1.644755      2.368150      0.117116
  O       0.561632      1.015703      1.515833
  C       1.083166      2.139487      1.197375
  C       1.014655      3.215440      2.242946
  H       1.003571      4.200044      1.782651
  H       1.906066      3.154324      2.869706
  H       0.147812      3.092834      2.887304
  H       3.248476     -1.838529      1.111328
  H       1.925277     -2.910121     -1.009856
39
Coordinates from ORCA-job reaction4-IEIP_ts_guess_scan_13-2_orca E -1288.395683329725
  Ir      0.627861     -0.708577      0.386300
  C       0.144690     -2.834495      0.323350
  C      -0.013402     -2.384037      1.680308
  C       2.191867     -2.060705      1.060822
  C       1.493269     -2.649776     -0.050130
  C       1.253449     -1.928162      2.119141
  N      -1.070222      0.137409     -0.521644
  C      -2.331804      0.357646      0.198595
  C      -3.137828      1.538039     -0.323949
  H      -3.961559      1.732467      0.361163
  H      -3.584468      1.345929     -1.300500
  H      -2.539746      2.447671     -0.382613
  C      -3.151411     -0.928409      0.181421
  H      -2.035264      0.571842      1.226419
  H      -4.049839     -0.802077      0.784104
  H      -3.462850     -1.182811     -0.832461
  H      -2.597982     -1.771920      0.590668
  C      -0.921492      0.468686     -1.751785
  C       0.400818      0.271129     -2.265797
  H      -1.723766      0.898630     -2.342150
  C       1.423410      0.070951     -1.326214
  C       2.648611     -0.206597     -2.022159
  S       0.908568      0.138029     -3.873127
  C       2.515041     -0.204044     -3.374294
  H       1.588951      1.125029     -0.671237
  H       3.601136     -0.337629     -1.529126
  H       3.283716     -0.357134     -4.116426
  H      -0.627125     -3.263442     -0.299016
  H      -0.911327     -2.433343      2.276965
  H       1.459138     -1.484566      3.083118
  O       1.665524      2.361814      0.122237
  O       0.563200      1.017108      1.512966
  C       1.093030      2.137239      1.197717
  C       1.019478      3.216333      2.240053
  H       1.015736      4.199874      1.777329
  H       1.905429      3.153726      2.874362
  H       0.146847      3.098411      2.877491
  H       3.246503     -1.839120      1.114671
  H       1.923184     -2.911930     -1.005831
39
Coordinates from ORCA-job reaction4-IEIP_ts_guess_scan_13-2_orca E -1288.395711263913
  Ir      0.625275     -0.711777      0.388345
  C       0.137817     -2.836070      0.333946
  C      -0.019457     -2.383940      1.690248
  C       2.186052     -2.064504      1.069306
  C       1.487009     -2.654882     -0.040229
  C       1.247450     -1.928694      2.127445
  N      -1.070634      0.135050     -0.523035
  C      -2.333800      0.351454      0.195803
  C      -3.142522      1.530852     -0.324903
  H      -3.967195      1.721838      0.359993
  H      -3.588106      1.339523     -1.302084
  H      -2.546654      2.442084     -0.381380
  C      -3.150736     -0.936354      0.176318
  H      -2.038771      0.564525      1.224405
  H      -4.050248     -0.812530      0.777907
  H      -3.460140     -1.190418     -0.838266
  H      -2.596001     -1.778939      0.585567
  C      -0.921638      0.472237     -1.750580
  C       0.399118      0.276874     -2.266275
  H      -1.724543      0.904110     -2.338619
  C       1.419730      0.062276     -1.327157
  C       2.646379     -0.205516     -2.024441
  S       0.910122      0.167691     -3.874037
  C       2.516810     -0.175434     -3.376669
  H       1.589432      1.124118     -0.680618
  H       3.597390     -0.346399     -1.531335
  H       3.287795     -0.313586     -4.119367
  H      -0.634620     -3.265111     -0.287575
  H      -0.917752     -2.429838      2.286597
  H       1.453946     -1.483002      3.090299
  O       1.685555      2.354784      0.120208
  O       0.567764      1.019687      1.507517
  C       1.104284      2.135446      1.192553
  C       1.032851      3.218468      2.231470
  H       1.033868      4.200610      1.765751
  H       1.917368      3.154644      2.867677
  H       0.158494      3.105893      2.867529
  H       3.241173     -1.845366      1.123539
  H       1.916507     -2.920615     -0.995113
39
Coordinates from ORCA-job reaction4-IEIP_ts_guess_scan_13-2_orca E -1288.395731631089
  Ir      0.623997     -0.716319      0.389397
  C       0.133301     -2.839146      0.340980
  C      -0.024193     -2.386157      1.697006
  C       2.181901     -2.069343      1.076489
  C       1.483333     -2.660632     -0.032635
  C       1.242384     -1.931204      2.133933
  N      -1.070046      0.132639     -0.523471
  C      -2.333588      0.347153      0.195573
  C      -3.142917      1.527199     -0.322544
  H      -3.967484      1.716189      0.362967
  H      -3.588651      1.337768     -1.300050
  H      -2.547527      2.438881     -0.377115
  C      -3.150218     -0.940803      0.173590
  H      -2.038918      0.558342      1.224727
  H      -4.050347     -0.817867      0.774410
  H      -3.458493     -1.193596     -0.841654
  H      -2.595824     -1.783780      0.582369
  C      -0.920106      0.476868     -1.749309
  C       0.400434      0.283854     -2.266314
  H      -1.722708      0.912851     -2.334730
  C       1.418594      0.054247     -1.327609
  C       2.646443     -0.206284     -2.025993
  S       0.916118      0.201438     -3.873962
  C       2.519791     -0.157021     -3.377976
  H       1.593523      1.121796     -0.686165
  H       3.595714     -0.358739     -1.532932
  H       3.292015     -0.287159     -4.120848
  H      -0.639094     -3.268291     -0.280547
  H      -0.923140     -2.429673      2.292504
  H       1.448838     -1.483992      3.096096
  O       1.680981      2.357046      0.108575
  O       0.571937      1.020166      1.502540
  C       1.105630      2.135796      1.184379
  C       1.038140      3.220213      2.222213
  H       1.031013      4.201584      1.754951
  H       1.928321      3.161364      2.850955
  H       0.169628      3.104817      2.865669
  H       3.237346     -1.852042      1.131873
  H       1.913240     -2.928971     -0.986601
39
Coordinates from ORCA-job reaction4-IEIP_ts_guess_scan_13-2_orca E -1288.395739537335
  Ir      0.624173     -0.718645      0.389041
  C       0.133217     -2.840731      0.341506
  C      -0.026242     -2.387422      1.697340
  C       2.180847     -2.070909      1.080036
  C       1.484067     -2.662758     -0.029893
  C       1.239619     -1.932289      2.136036
  N      -1.069156      0.131893     -0.523621
  C      -2.332039      0.346718      0.196554
  C      -3.140963      1.527569     -0.320255
  H      -3.964805      1.716515      0.366147
  H      -3.587602      1.339115     -1.297540
  H      -2.545118      2.438980     -0.374605
  C      -3.149451     -0.940678      0.174121
  H      -2.036578      0.557223      1.225607
  H      -4.049562     -0.817232      0.774867
  H      -3.457792     -1.192964     -0.841218
  H      -2.595792     -1.784222      0.582711
  C      -0.919160      0.478898     -1.748969
  C       0.401221      0.285231     -2.266631
  H      -1.721403      0.916915     -2.333308
  C       1.418743      0.050995     -1.328392
  C       2.646707     -0.207695     -2.027308
  S       0.917529      0.208290     -3.874328
  C       2.520899     -0.151961     -3.379156
  H       1.595713      1.120437     -0.688921
  H       3.595538     -0.363646     -1.534453
  H       3.293522     -0.278894     -4.122159
  H      -0.638108     -3.270267     -0.281076
  H      -0.926156     -2.430488      2.291395
  H       1.444658     -1.484507      3.098228
  O       1.673665      2.358128      0.103006
  O       0.571983      1.019235      1.500650
  C       1.102382      2.135842      1.180895
  C       1.036705      3.220129      2.218945
  H       1.023665      4.201339      1.751461
  H       1.930569      3.164543      2.842750
  H       0.172121      3.101898      2.867118
  H       3.236226     -1.853714      1.137153
  H       1.915527     -2.931681     -0.982995
39
Coordinates from ORCA-job reaction4-IEIP_ts_guess_scan_13-2_orca E -1288.395740802947
  Ir      0.624469     -0.719897      0.388567
  C       0.134154     -2.841602      0.340887
  C      -0.027710     -2.387909      1.696468
  C       2.180408     -2.071111      1.082961
  C       1.485770     -2.663559     -0.027979
  C       1.237246     -1.932432      2.137340
  N      -1.068925      0.131797     -0.523568
  C      -2.331462      0.346327      0.197409
  C      -3.140286      1.527845     -0.318024
  H      -3.963791      1.716216      0.368952
  H      -3.587319      1.340498     -1.295340
  H      -2.544345      2.439246     -0.371611
  C      -3.149185     -0.940821      0.173771
  H      -2.035610      0.555922      1.226505
  H      -4.049422     -0.817549      0.774370
  H      -3.457355     -1.192211     -0.841836
  H      -2.595974     -1.784927      0.581777
  C      -0.918969      0.480684     -1.748551
  C       0.401334      0.286228     -2.266668
  H      -1.720895      0.920177     -2.332176
  C       1.418803      0.049715     -1.328988
  C       2.646503     -0.208723     -2.028453
  S       0.917456      0.211277     -3.874534
  C       2.520620     -0.150624     -3.380221
  H       1.596729      1.119465     -0.689759
  H       3.595222     -0.366548     -1.535958
  H       3.293114     -0.276753     -4.123490
  H      -0.635835     -3.271819     -0.282876
  H      -0.928624     -2.431032      2.289000
  H       1.440491     -1.484249      3.099719
  O       1.672791      2.358035      0.100975
  O       0.572277      1.018961      1.499368
  C       1.102293      2.135734      1.179300
  C       1.036145      3.220278      2.216964
  H       1.019965      4.201201      1.748939
  H       1.931469      3.167087      2.838873
  H       0.173148      3.100474      2.866930
  H       3.235617     -1.853570      1.141915
  H       1.919055     -2.932643     -0.980216
39
Coordinates from ORCA-job reaction4-IEIP_ts_guess_scan_13-2_orca E -1288.395740101130
  Ir      0.625006     -0.721361      0.387482
  C       0.137316     -2.842682      0.338595
  C      -0.031008     -2.388299      1.693495
  C       2.179569     -2.069627      1.089866
  C       1.490714     -2.663657     -0.023713
  C       1.231339     -1.931567      2.140089
  N      -1.068754      0.132065     -0.523333
  C      -2.330787      0.345389      0.198945
  C      -3.139730      1.528093     -0.313610
  H      -3.962926      1.714766      0.374212
  H      -3.587048      1.343096     -1.291237
  H      -2.543929      2.439714     -0.365135
  C      -3.148606     -0.941598      0.172260
  H      -2.034425      0.552952      1.228262
  H      -4.049192     -0.819409      0.772580
  H      -3.456265     -1.190815     -0.844028
  H      -2.595904     -1.786805      0.578644
  C      -0.919147      0.484197     -1.747531
  C       0.400833      0.288346     -2.266709
  H      -1.720580      0.926421     -2.329707
  C       1.418591      0.048358     -1.330371
  C       2.645263     -0.211028     -2.031228
  S       0.915703      0.215467     -3.875102
  C       2.518448     -0.150390     -3.382833
  H       1.598465      1.118020     -0.691226
  H       3.593984     -0.372045     -1.539750
  H       3.290167     -0.276681     -4.126874
  H      -0.629044     -3.274879     -0.288241
  H      -0.934444     -2.432199      2.282122
  H       1.429669     -1.482604      3.103119
  O       1.674274      2.357082      0.098763
  O       0.572423      1.018918      1.496836
  C       1.102512      2.135753      1.176587
  C       1.036732      3.220251      2.214190
  H       1.015513      4.200887      1.745691
  H       1.934881      3.170499      2.832301
  H       0.176738      3.097975      2.867596
  H       3.234229     -1.850749      1.153527
  H       1.928790     -2.932662     -0.973794
39
Coordinates from ORCA-job reaction4-IEIP_ts_guess_scan_13-2_orca E -1288.395736481596
  Ir      0.625772     -0.722172      0.386550
  C       0.141591     -2.843589      0.335196
  C      -0.034329     -2.389115      1.689430
  C       2.178895     -2.067328      1.097329
  C       1.496893     -2.662882     -0.019431
  C       1.224734     -1.930840      2.142809
  N      -1.068671      0.132770     -0.522515
  C      -2.330407      0.344532      0.200700
  C      -3.139257      1.528792     -0.308454
  H      -3.962478      1.713367      0.379900
  H      -3.586402      1.346804     -1.286719
  H      -2.543487      2.440598     -0.357071
  C      -3.148401     -0.942246      0.169939
  H      -2.033820      0.549328      1.230485
  H      -4.049248     -0.821770      0.770233
  H      -3.455692     -1.188304     -0.847228
  H      -2.596086     -1.788929      0.573745
  C      -0.919661      0.487378     -1.746011
  C       0.399740      0.290319     -2.266577
  H      -1.720825      0.931956     -2.326735
  C       1.418170      0.047760     -1.331756
  C       2.643404     -0.213635     -2.034388
  S       0.912253      0.216974     -3.875713
  C       2.514983     -0.151846     -3.385790
  H       1.600221      1.116805     -0.692285
  H       3.592440     -0.376845     -1.544235
  H       3.285545     -0.279194     -4.130849
  H      -0.620457     -3.278045     -0.295301
  H      -0.940634     -2.434482      2.273530
  H       1.417174     -1.481469      3.106838
  O       1.679920      2.355082      0.098549
  O       0.573650      1.018914      1.494963
  C       1.106568      2.134785      1.175679
  C       1.037253      3.220775      2.211400
  H       1.010420      4.200394      1.740954
  H       1.937069      3.176859      2.827499
  H       0.179146      3.095715      2.866695
  H       3.232860     -1.846792      1.166507
  H       1.940524     -2.931234     -0.967134
39
Coordinates from ORCA-job reaction4-IEIP_ts_guess_scan_13-2_orca E -1288.395735402726
  Ir      0.626081     -0.721703      0.386125
  C       0.146375     -2.843932      0.331800
  C      -0.037166     -2.390059      1.685464
  C       2.178283     -2.063602      1.104602
  C       1.503296     -2.660718     -0.015315
  C       1.218282     -1.929651      2.145501
  N      -1.069293      0.133230     -0.521772
  C      -2.331189      0.343308      0.201569
  C      -3.139811      1.529025     -0.304591
  H      -3.963465      1.711570      0.383769
  H      -3.586283      1.349913     -1.283689
  H      -2.543999      2.440959     -0.350158
  C      -3.149229     -0.943365      0.166676
  H      -2.034931      0.545310      1.232007
  H      -4.050149     -0.824979      0.767285
  H      -3.456422     -1.186025     -0.851344
  H      -2.596913     -1.791468      0.567484
  C      -0.920873      0.488739     -1.744906
  C       0.398043      0.291563     -2.266563
  H      -1.722150      0.934283     -2.324748
  C       1.417215      0.048145     -1.332801
  C       2.641232     -0.215370     -2.036888
  S       0.908383      0.216846     -3.876294
  C       2.511139     -0.154511     -3.388129
  H       1.600942      1.116567     -0.693113
  H       3.590713     -0.379292     -1.547826
  H       3.280574     -0.283692     -4.134041
  H      -0.611264     -3.280779     -0.302323
  H      -0.946237     -2.437517      2.265092
  H       1.404665     -1.480145      3.110654
  O       1.685111      2.353893      0.098746
  O       0.574552      1.019928      1.493864
  C       1.109101      2.135061      1.174718
  C       1.041145      3.221271      2.210343
  H       1.009853      4.200563      1.739426
  H       1.943830      3.180435      2.822453
  H       0.186090      3.094399      2.869217
  H       3.231459     -1.841109      1.179239
  H       1.952379     -2.927907     -0.960792
39
Coordinates from ORCA-job reaction4-IEIP_ts_guess_scan_13-2_orca E -1288.395736640345
  Ir      0.626286     -0.720391      0.386250
  C       0.152613     -2.844171      0.326804
  C      -0.040285     -2.392569      1.680102
  C       2.177473     -2.058748      1.113054
  C       1.511264     -2.657171     -0.011035
  C       1.210379     -1.929330      2.148492
  N      -1.070113      0.133301     -0.520478
  C      -2.332252      0.342043      0.202613
  C      -3.139633      1.530110     -0.300010
  H      -3.963812      1.710965      0.388136
  H      -3.585325      1.354767     -1.280146
  H      -2.542896      2.441601     -0.341973
  C      -3.151098     -0.944043      0.162940
  H      -2.036487      0.540321      1.233950
  H      -4.051352     -0.828132      0.765016
  H      -3.459390     -1.181898     -0.855899
  H      -2.598574     -1.794248      0.559057
  C      -0.922700      0.487757     -1.743781
  C       0.395597      0.291325     -2.266673
  H      -1.724690      0.932748     -2.323146
  C       1.415780      0.048803     -1.333722
  C       2.638719     -0.216712     -2.039207
  S       0.903443      0.213772     -3.876959
  C       2.506754     -0.158122     -3.390277
  H       1.601057      1.116828     -0.694254
  H       3.588910     -0.379621     -1.551176
  H       3.275058     -0.289192     -4.137034
  H      -0.599567     -3.283518     -0.312036
  H      -0.952771     -2.443188      2.254077
  H       1.389151     -1.480415      3.115358
  O       1.690044      2.353031      0.098833
  O       0.576313      1.021184      1.493574
  C       1.112642      2.135248      1.174296
  C       1.046101      3.222352      2.209251
  H       1.007588      4.200911      1.737268
  H       1.952959      3.186857      2.815499
  H       0.195670      3.092588      2.873472
  H       3.229629     -1.833900      1.194579
  H       1.966884     -2.921953     -0.954074
39
Coordinates from ORCA-job reaction4-IEIP_ts_guess_scan_13-2_orca E -1288.395740968765
  Ir      0.626415     -0.719780      0.386881
  C       0.157571     -2.844743      0.322464
  C      -0.042457     -2.396009      1.675791
  C       2.176884     -2.055713      1.119430
  C       1.517454     -2.654550     -0.008156
  C       1.204434     -1.930614      2.150798
  N      -1.070653      0.132460     -0.519369
  C      -2.332731      0.341249      0.203738
  C      -3.137927      1.531983     -0.296027
  H      -3.962105      1.712571      0.392176
  H      -3.583546      1.360021     -1.276796
  H      -2.539372      2.442380     -0.335516
  C      -3.153421     -0.943599      0.160715
  H      -2.037077      0.536339      1.235729
  H      -4.052434     -0.828954      0.764865
  H      -3.463774     -1.177192     -0.858498
  H      -2.601046     -1.795965      0.552444
  C      -0.924227      0.484925     -1.743278
  C       0.393693      0.289233     -2.266903
  H      -1.727086      0.928316     -2.322733
  C       1.414564      0.048371     -1.334174
  C       2.637331     -0.216990     -2.040212
  S       0.900515      0.210510     -3.877361
  C       2.504532     -0.159770     -3.391204
  H       1.600286      1.116845     -0.695592
  H       3.588002     -0.378254     -1.552553
  H       3.272462     -0.290927     -4.138332
  H      -0.590443     -3.285459     -0.320291
  H      -0.957664     -2.449176      2.245189
  H       1.377339     -1.482680      3.119183
  O       1.689949      2.353290      0.097040
  O       0.578026      1.021891      1.493784
  C       1.113900      2.135634      1.173343
  C       1.049043      3.223648      2.207602
  H       1.002230      4.201367      1.734575
  H       1.960523      3.193994      2.807194
  H       0.203975      3.090513      2.877931
  H       3.228251     -1.829256      1.206430
  H       1.977953     -2.916722     -0.949566
39
Coordinates from ORCA-job reaction4-IEIP_ts_guess_scan_13-2_orca E -1288.395746736878
  Ir      0.626702     -0.720046      0.387773
  C       0.162513     -2.845720      0.317498
  C      -0.044786     -2.400508      1.671051
  C       2.176253     -2.053784      1.125948
  C       1.523733     -2.652454     -0.005492
  C       1.198334     -1.933297      2.153140
  N      -1.070771      0.130922     -0.518133
  C      -2.332349      0.340690      0.205607
  C      -3.134366      1.534923     -0.290891
  H      -3.957993      1.716045      0.397843
  H      -3.580598      1.366934     -1.272068
  H      -2.533091      2.443610     -0.328140
  C      -3.155958     -0.942193      0.159430
  H      -2.036308      0.532284      1.238122
  H      -4.053151     -0.828181      0.766382
  H      -3.469359     -1.171064     -0.859931
  H      -2.604134     -1.797242      0.546163
  C      -0.925601      0.480984     -1.742947
  C       0.392018      0.285625     -2.267208
  H      -1.729450      0.922276     -2.322672
  C       1.413472      0.046623     -1.334574
  C       2.636560     -0.217013     -2.040764
  S       0.898697      0.207370     -3.877683
  C       2.503493     -0.160102     -3.391736
  H       1.598973      1.116183     -0.697431
  H       3.587547     -0.376638     -1.553163
  H       3.271462     -0.289982     -4.139045
  H      -0.581283     -3.287222     -0.329581
  H      -0.962944     -2.455992      2.235463
  H       1.365286     -1.486743      3.123199
  O       1.686516      2.353983      0.093320
  O       0.579911      1.022051      1.493863
  C       1.113541      2.136094      1.171336
  C       1.049876      3.225317      2.204478
  H       0.991941      4.201782      1.730027
  H       1.966985      3.203656      2.795762
  H       0.211674      3.087499      2.882383
  H       3.226836     -1.826031      1.218769
  H       1.989188     -2.911450     -0.945357
39
Coordinates from ORCA-job reaction4-IEIP_ts_guess_scan_13-2_orca E -1288.395750534454
  Ir      0.627168     -0.720926      0.388442
  C       0.165173     -2.846506      0.314324
  C      -0.046022     -2.403512      1.668140
  C       2.176062     -2.053795      1.129463
  C       1.527217     -2.651842     -0.004308
  C       1.195184     -1.935795      2.154345
  N      -1.070448      0.129640     -0.517253
  C      -2.331438      0.340562      0.207325
  C      -3.130920      1.537429     -0.286947
  H      -3.953887      1.719322      0.402400
  H      -3.577890      1.372263     -1.268262
  H      -2.527501      2.444741     -0.322891
  C      -3.157521     -0.940640      0.159262
  H      -2.034836      0.529893      1.240055
  H      -4.053408     -0.826493      0.768117
  H      -3.473148     -1.166472     -0.860087
  H      -2.606477     -1.797638      0.542837
  C      -0.926163      0.478206     -1.742753
  C       0.391356      0.282535     -2.267331
  H      -1.730584      0.918129     -2.322712
  C       1.413132      0.044635     -1.334766
  C       2.636683     -0.216977     -2.040771
  S       0.898548      0.205676     -3.877756
  C       2.503767     -0.159560     -3.391783
  H       1.597844      1.115137     -0.698631
  H       3.587734     -0.375796     -1.553021
  H       3.271995     -0.287890     -4.139088
  H      -0.576395     -3.287922     -0.335357
  H      -0.965911     -2.459940      2.229640
  H       1.358999     -1.490356      3.125442
  O       1.682479      2.354467      0.090039
  O       0.581104      1.021674      1.493844
  C       1.112084      2.136426      1.169449
  C       1.048169      3.226600      2.201519
  H       0.982069      4.202004      1.725900
  H       1.968897      3.211114      2.787335
  H       0.214633      3.085197      2.884379
  H       3.226262     -1.825678      1.225627
  H       1.995358     -2.908724     -0.943428
39
Coordinates from ORCA-job reaction4-IEIP_ts_guess_scan_13-2_orca E -1288.395751545592
  Ir      0.627627     -0.721600      0.388703
  C       0.165572     -2.846749      0.313309
  C      -0.046274     -2.404305      1.667272
  C       2.176177     -2.054742      1.130077
  C       1.527886     -2.652183     -0.004332
  C       1.194746     -1.937046      2.154474
  N      -1.069947      0.129191     -0.516803
  C      -2.330612      0.340680      0.208281
  C      -3.129046      1.538642     -0.285094
  H      -3.951683      1.720886      0.404573
  H      -3.576356      1.374668     -1.266448
  H      -2.524776      2.445411     -0.320505
  C      -3.157781     -0.939764      0.159502
  H      -2.033666      0.529201      1.241031
  H      -4.053268     -0.825326      0.768899
  H      -3.474129     -1.164576     -0.859844
  H      -2.607269     -1.797541      0.542126
  C      -0.926006      0.477345     -1.742556
  C       0.391490      0.281201     -2.267250
  H      -1.730541      0.916957     -2.322568
  C       1.413385      0.043490     -1.334807
  C       2.637145     -0.217097     -2.040644
  S       0.899082      0.205329     -3.877683
  C       2.504345     -0.159166     -3.391697
  H       1.597375      1.114345     -0.698897
  H       3.588152     -0.375898     -1.552806
  H       3.272724     -0.286751     -4.138973
  H      -0.575667     -3.287700     -0.337060
  H      -0.966585     -2.460588      2.228104
  H       1.358112     -1.492192      3.125912
  O       1.680287      2.354540      0.088595
  O       0.581533      1.021208      1.493852
  C       1.110832      2.136556      1.168501
  C       1.045808      3.227215      2.199898
  H       0.976364      4.202090      1.723645
  H       1.967628      3.214589      2.784058
  H       0.213806      3.084186      2.884268
  H       3.226369     -1.826920      1.227013
  H       1.996533     -2.908398     -0.943385
