! Opt PBEh-3c
%geom Constraints
{ B 0 20 2.0428571428571427 C }
{ B 24 30 1.3857142857142857 C }
    end
end
%output 
xyzfile=True 
end 
%scf 
maxiter 250 
end
%output
Print[P_Hirshfeld] = 1
end
% maxcore
4000
*xyz 1 1
Ir   0.61799780  -0.73050540   0.40882760 
C    0.15402030  -2.84892137   0.33020108 
C   -0.07734596  -2.40197482   1.67981654 
C    2.15479289  -2.06136598   1.17595602 
C    1.52225956  -2.65828544   0.03316605 
C    1.15786756  -1.93761501   2.18477884 
N   -1.07176591   0.11843020  -0.51135980 
C   -2.34068110   0.31474513   0.20487318 
C   -3.13607252   1.52066672  -0.27429198 
H   -3.96503069   1.69001730   0.41103983 
H   -3.57411720   1.37473354  -1.26261899 
H   -2.53196995   2.42813896  -0.28801395 
C   -3.16604994  -0.96501818   0.12574363 
H   -2.05571195   0.48671640   1.24393784 
H   -4.06860033  -0.86262550   0.72689574 
H   -3.47049089  -1.17294416  -0.90080814 
H   -2.61886710  -1.82898791   0.49923437 
C   -0.92356740   0.47816766  -1.73347106 
C    0.39337044   0.30001702  -2.26486196 
H   -1.73164368   0.91573943  -2.31047998 
C    1.42174515   0.04626685  -1.35208670 
C    2.63969694  -0.19597320  -2.06506553 
S    0.89243364   0.26845341  -3.88371883 
C    2.49857913  -0.10305310  -3.41546168 
H    1.62098751   1.13661723  -0.66227727 
H    3.59325175  -0.37024231  -1.58768214 
H    3.26371363  -0.21214148  -4.16901838 
H   -0.57778996  -3.28979770  -0.33079482 
H   -1.00574572  -2.45577965   2.22741577 
H    1.30746201  -1.49135981   3.15781835 
O    1.72925213   2.31372571   0.08785232 
O    0.58087881   1.02956434   1.49708440 
C    1.13898428   2.12332212   1.16873101 
C    1.09559005   3.23672111   2.17406996 
H    0.98172961   4.19727953   1.67693421 
H    2.04433801   3.26273047   2.71280249 
H    0.29811506   3.09250737   2.89751489 
H    3.20372815  -1.83445141   1.28729779 
H    2.00402594  -2.91432805  -0.89924050 
*
