! Opt PBEh-3c
%geom Constraints
{ B 0 20 2.085714285714286 C }
{ B 24 30 1.3 C }
    end
end
%output 
xyzfile=True 
end 
%scf 
maxiter 250 
end
%output
Print[P_Hirshfeld] = 1
end
% maxcore
4000
%pal nprocs 2
end
*xyz 1 1
Ir   0.60800269  -0.74572184   0.42945556 
C    0.14499020  -2.85532301   0.35506025 
C   -0.12115701  -2.40455856   1.69754979 
C    2.12401619  -2.06668685   1.25041325 
C    1.52321835  -2.66870795   0.09543314 
C    1.09873519  -1.93747365   2.23230556 
N   -1.07431653   0.09923001  -0.50606029 
C   -2.35182171   0.27620715   0.20156412 
C   -3.14060222   1.49697013  -0.25090054 
H   -3.97559003   1.64888183   0.43119846 
H   -3.56934529   1.38133179  -1.24723164 
H   -2.53406232   2.40274675  -0.23318043 
C   -3.17836645  -0.99890232   0.07877124 
H   -2.07979760   0.42055858   1.24832913 
H   -4.08695735  -0.91312922   0.67350813 
H   -3.47244975  -1.17753441  -0.95629312 
H   -2.63569475  -1.87429277   0.43201825 
C   -0.92389025   0.47423983  -1.72397093 
C    0.39039155   0.31688176  -2.26609684 
H   -1.73720003   0.91094016  -2.29467149 
C    1.42357938   0.02417713  -1.37966209 
C    2.63711722  -0.17968119  -2.10159515 
S    0.88459915   0.37401388  -3.89152009 
C    2.48972421  -0.01467859  -3.44744729 
H    1.65613717   1.18518113  -0.64107450 
H    3.59197975  -0.38557359  -1.63979418 
H    3.25323844  -0.08582293  -4.20725390 
H   -0.56775332  -3.30127334  -0.32310766 
H   -1.06425543  -2.45469150   2.21976468 
H    1.22203854  -1.48726693   3.20719528 
O    1.77718162   2.28601372   0.06664209 
O    0.59326011   1.04576169   1.48580274 
C    1.17398297   2.11674894   1.15505036 
C    1.16485305   3.24991280   2.13531438 
H    1.03745845   4.20073814   1.62254983 
H    2.13013915   3.28543733   2.64334247 
H    0.38877848   3.12127590   2.88408951 
H    3.16979696  -1.84012577   1.38865528 
H    2.02941112  -2.92661430  -0.82341333 
*
