39
Coordinates from ORCA-job reaction4-IEIP_ts_guess_scan_7-11_orca E -1288.400629590715
  Ir      0.607470     -0.725547      0.464305
  C       0.107678     -2.825514      0.333828
  C      -0.010471     -2.369697      1.695475
  C       2.186625     -2.097646      1.033496
  C       1.443654     -2.645377     -0.075721
  C       1.291008     -1.960170      2.116554
  N      -1.049644      0.129249     -0.503399
  C      -2.325542      0.378434      0.188458
  C      -3.102753      1.560876     -0.371894
  H      -3.932067      1.786591      0.297029
  H      -3.539960      1.356582     -1.350106
  H      -2.486657      2.457476     -0.442689
  C      -3.163098     -0.895247      0.183364
  H      -2.047588      0.611338      1.217275
  H      -4.072140     -0.742842      0.763631
  H      -3.457098     -1.169285     -0.830693
  H      -2.630984     -1.736807      0.624355
  C      -0.887045      0.395843     -1.742784
  C       0.440758      0.216598     -2.258173
  H      -1.696695      0.767788     -2.363961
  C       1.530805      0.261726     -1.396540
  C       2.728268     -0.051820     -2.100073
  S       0.868560     -0.159942     -3.862634
  C       2.519695     -0.292278     -3.424857
  H       1.574593      1.234150     -0.583878
  H       3.712011     -0.041727     -1.653724
  H       3.256246     -0.519637     -4.180691
  H      -0.691105     -3.223326     -0.275233
  H      -0.891714     -2.416201      2.317689
  H       1.532218     -1.540062      3.082840
  O       1.557160      2.344582      0.171040
  O       0.552307      0.980051      1.603935
  C       1.035962      2.112855      1.269819
  C       0.981604      3.190050      2.313094
  H       0.919903      4.172103      1.851342
  H       1.902769      3.159811      2.898173
  H       0.149992      3.043762      2.997772
  H       3.241640     -1.870705      1.046732
  H       1.843005     -2.876843     -1.052417
39
Coordinates from ORCA-job reaction4-IEIP_ts_guess_scan_7-11_orca E -1288.400796732337
  Ir      0.610384     -0.727609      0.466081
  C       0.106016     -2.828621      0.340426
  C      -0.013548     -2.371871      1.701318
  C       2.184898     -2.102938      1.042148
  C       1.442962     -2.651651     -0.067139
  C       1.287240     -1.962536      2.123423
  N      -1.049135      0.127957     -0.505137
  C      -2.324110      0.377313      0.187156
  C      -3.101669      1.558326     -0.375600
  H      -3.931567      1.784669      0.292360
  H      -3.537862      1.351972     -1.353859
  H      -2.486075      2.455189     -0.447556
  C      -3.160546     -0.897048      0.184330
  H      -2.045597      0.611812      1.215475
  H      -4.069439     -0.744509      0.764769
  H      -3.454785     -1.172877     -0.829174
  H      -2.627405     -1.737408      0.626453
  C      -0.888747      0.396506     -1.747040
  C       0.439468      0.224137     -2.267121
  H      -1.699916      0.771269     -2.364531
  C       1.526022      0.255082     -1.400982
  C       2.724494     -0.053222     -2.106157
  S       0.869114     -0.138197     -3.874180
  C       2.518965     -0.278049     -3.434042
  H       1.573097      1.235850     -0.585034
  H       3.707383     -0.049241     -1.657810
  H       3.257009     -0.498116     -4.190473
  H      -0.692262     -3.226426     -0.269326
  H      -0.895682     -2.416958      2.322250
  H       1.527391     -1.541557      3.089577
  O       1.560315      2.346877      0.169102
  O       0.552568      0.981015      1.606016
  C       1.038347      2.113707      1.270573
  C       0.984898      3.191429      2.313049
  H       0.923064      4.173346      1.850930
  H       1.906411      3.161257      2.897550
  H       0.153608      3.045395      2.998081
  H       3.240408     -1.878548      1.057287
  H       1.843654     -2.886536     -1.042452
39
Coordinates from ORCA-job reaction4-IEIP_ts_guess_scan_7-11_orca E -1288.400913272664
  Ir      0.607851     -0.728557      0.468543
  C       0.097354     -2.829919      0.353728
  C      -0.023259     -2.370078      1.712801
  C       2.176362     -2.106045      1.054929
  C       1.435330     -2.657813     -0.052822
  C       1.276419     -1.960070      2.134280
  N      -1.046834      0.122816     -0.504610
  C      -2.322765      0.369542      0.186459
  C      -3.101882      1.550307     -0.374884
  H      -3.932910      1.774229      0.292511
  H      -3.536651      1.344758     -1.353909
  H      -2.487709      2.448317     -0.444741
  C      -3.157688     -0.905853      0.181568
  H      -2.045336      0.602604      1.215416
  H      -4.067244     -0.755289      0.761551
  H      -3.450783     -1.180807     -0.832491
  H      -2.623596     -1.745848      0.623095
  C      -0.885913      0.397666     -1.746815
  C       0.441866      0.231145     -2.273665
  H      -1.698217      0.776959     -2.359658
  C       1.527073      0.238004     -1.405168
  C       2.725617     -0.055390     -2.117578
  S       0.872074     -0.089641     -3.888808
  C       2.520748     -0.248154     -3.450383
  H       1.580460      1.230494     -0.585642
  H       3.708382     -0.064399     -1.668911
  H       3.258983     -0.451941     -4.211094
  H      -0.700721     -3.228388     -0.255828
  H      -0.906271     -2.411827      2.332555
  H       1.515756     -1.535984      3.099265
  O       1.575361      2.343145      0.166187
  O       0.549092      0.984510      1.603466
  C       1.044662      2.112689      1.267537
  C       0.993652      3.193626      2.305867
  H       0.939441      4.174669      1.840888
  H       1.912629      3.159624      2.894150
  H       0.158584      3.053883      2.987469
  H       3.232522     -1.885024      1.071716
  H       1.836931     -2.898772     -1.026236
39
Coordinates from ORCA-job reaction4-IEIP_ts_guess_scan_7-11_orca E -1288.400962277625
  Ir      0.608691     -0.732300      0.472264
  C       0.092626     -2.832786      0.367976
  C      -0.028155     -2.368258      1.725116
  C       2.172791     -2.111758      1.067700
  C       1.431585     -2.666037     -0.038397
  C       1.271651     -1.958979      2.145397
  N      -1.046215      0.119411     -0.505721
  C      -2.324264      0.362154      0.183642
  C      -3.103570      1.544896     -0.373360
  H      -3.935826      1.764944      0.293750
  H      -3.536757      1.343527     -1.353952
  H      -2.490112      2.443786     -0.438076
  C      -3.159327     -0.913211      0.171342
  H      -2.049462      0.590756      1.214320
  H      -4.070472     -0.764992      0.749446
  H      -3.449666     -1.183936     -0.844647
  H      -2.626604     -1.754979      0.610840
  C      -0.885248      0.401322     -1.746126
  C       0.440428      0.237794     -2.276347
  H      -1.698785      0.782558     -2.356045
  C       1.524919      0.225821     -1.407239
  C       2.723502     -0.056117     -2.123599
  S       0.870695     -0.054760     -3.896389
  C       2.519710     -0.217323     -3.460870
  H       1.584478      1.223977     -0.587031
  H       3.705813     -0.076891     -1.674348
  H       3.258523     -0.405167     -4.225106
  H      -0.705763     -3.231703     -0.240870
  H      -0.911807     -2.405474      2.344209
  H       1.511218     -1.531362      3.108775
  O       1.586331      2.338124      0.162595
  O       0.551865      0.987045      1.600955
  C       1.052070      2.111329      1.263587
  C       1.004824      3.196271      2.297507
  H       0.954186      4.175876      1.829129
  H       1.923567      3.161127      2.886092
  H       0.168989      3.061613      2.979173
  H       3.229638     -1.894228      1.085308
  H       1.833304     -2.912879     -1.010257
39
Coordinates from ORCA-job reaction4-IEIP_ts_guess_scan_7-11_orca E -1288.400987220885
  Ir      0.608114     -0.735135      0.474844
  C       0.088693     -2.834086      0.379235
  C      -0.032852     -2.365268      1.734697
  C       2.169459     -2.114810      1.078327
  C       1.428662     -2.671358     -0.026705
  C       1.267014     -1.956299      2.154291
  N      -1.045865      0.116412     -0.506336
  C      -2.325982      0.353932      0.181829
  C      -3.106185      1.538859     -0.369456
  H      -3.939214      1.754058      0.298197
  H      -3.538511      1.342491     -1.351468
  H      -2.493860      2.438915     -0.428680
  C      -3.160231     -0.921886      0.160599
  H      -2.053963      0.577325      1.214425
  H      -4.073293     -0.777071      0.736514
  H      -3.447179     -1.187641     -0.857675
  H      -2.628595     -1.765684      0.597501
  C      -0.884461      0.406556     -1.744111
  C       0.439226      0.246461     -2.276398
  H      -1.698867      0.790295     -2.351410
  C       1.523981      0.215974     -1.408393
  C       2.721992     -0.057381     -2.127774
  S       0.870915     -0.007936     -3.902228
  C       2.517298     -0.196210     -3.467743
  H       1.590763      1.216674     -0.587502
  H       3.703587     -0.094531     -1.678144
  H       3.255202     -0.377381     -4.234484
  H      -0.709577     -3.233591     -0.229382
  H      -0.917309     -2.398478      2.352878
  H       1.506507     -1.525225      3.116163
  O       1.600281      2.331869      0.160506
  O       0.553338      0.990232      1.596513
  C       1.059863      2.110056      1.259324
  C       1.014796      3.199697      2.288600
  H       0.969061      4.177580      1.816193
  H       1.932160      3.163353      2.879237
  H       0.176899      3.071075      2.968932
  H       3.226775     -1.899717      1.096991
  H       1.830727     -2.922933     -0.997171
39
Coordinates from ORCA-job reaction4-IEIP_ts_guess_scan_7-11_orca E -1288.400997326285
  Ir      0.606011     -0.736027      0.475505
  C       0.086189     -2.833781      0.380313
  C      -0.036771     -2.364136      1.735476
  C       2.166565     -2.115295      1.081501
  C       1.426865     -2.671851     -0.024244
  C       1.262949     -1.955637      2.156299
  N      -1.045064      0.115949     -0.505043
  C      -2.325469      0.352059      0.183147
  C      -3.106362      1.537253     -0.366761
  H      -3.939014      1.751375      0.301686
  H      -3.539309      1.341770     -1.348693
  H      -2.494484      2.437649     -0.425505
  C      -3.158879     -0.924225      0.160025
  H      -2.054006      0.574640      1.216081
  H      -4.072681     -0.780412      0.735025
  H      -3.444523     -1.189338     -0.858787
  H      -2.627350     -1.768262      0.596776
  C      -0.883007      0.407923     -1.742057
  C       0.440015      0.246546     -2.274388
  H      -1.697272      0.792040     -2.349391
  C       1.525966      0.210478     -1.408058
  C       2.723565     -0.057800     -2.129444
  S       0.870382     -0.003341     -3.901491
  C       2.517923     -0.186229     -3.470566
  H       1.595588      1.210236     -0.586912
  H       3.705565     -0.096773     -1.680988
  H       3.255491     -0.360059     -4.239362
  H      -0.711436     -3.233111     -0.229264
  H      -0.922044     -2.396228      2.352565
  H       1.501692     -1.523855      3.118045
  O       1.607442      2.326000      0.160212
  O       0.551991      0.990296      1.594028
  C       1.062333      2.108013      1.257109
  C       1.015989      3.200683      2.283588
  H       0.972703      4.177246      1.808246
  H       1.931836      3.164847      2.876575
  H       0.176222      3.075224      2.962221
  H       3.223950     -1.900615      1.101428
  H       1.829809     -2.924065     -0.994161
39
Coordinates from ORCA-job reaction4-IEIP_ts_guess_scan_7-11_orca E -1288.401000726248
  Ir      0.606241     -0.736053      0.475219
  C       0.087668     -2.833874      0.378134
  C      -0.036570     -2.364665      1.733472
  C       2.167268     -2.114824      1.081563
  C       1.428635     -2.671108     -0.025104
  C       1.262828     -1.956042      2.155699
  N      -1.045463      0.116762     -0.504938
  C      -2.325606      0.352695      0.183706
  C      -3.106743      1.537668     -0.366348
  H      -3.939098      1.751969      0.302436
  H      -3.540075      1.341861     -1.348040
  H      -2.494922      2.438055     -0.425672
  C      -3.158772     -0.923734      0.160818
  H      -2.053941      0.575626      1.216491
  H      -4.072769     -0.779914      0.735540
  H      -3.444127     -1.189233     -0.857971
  H      -2.627329     -1.767596      0.597911
  C      -0.883581      0.408891     -1.742129
  C       0.439625      0.247600     -2.274043
  H      -1.697684      0.793140     -2.349530
  C       1.525638      0.211757     -1.407961
  C       2.722898     -0.058992     -2.128786
  S       0.869940     -0.004861     -3.901049
  C       2.517031     -0.189150     -3.469844
  H       1.596705      1.209712     -0.586062
  H       3.704902     -0.098014     -1.680352
  H       3.254419     -0.364656     -4.238437
  H      -0.709185     -3.233363     -0.232343
  H      -0.922294     -2.397411      2.349883
  H       1.500688     -1.524629      3.117829
  O       1.609744      2.325246      0.161386
  O       0.551639      0.990364      1.594013
  C       1.062836      2.108134      1.257437
  C       1.015019      3.201060      2.283638
  H       0.971284      4.177302      1.807660
  H       1.930572      3.166192      2.877118
  H       0.174957      3.075428      2.961852
  H       3.224520     -1.899551      1.102387
  H       1.832471     -2.922604     -0.994840
39
Coordinates from ORCA-job reaction4-IEIP_ts_guess_scan_7-11_orca E -1288.401005042902
  Ir      0.606228     -0.736197      0.475170
  C       0.089919     -2.834119      0.375136
  C      -0.038474     -2.365323      1.730464
  C       2.167183     -2.113884      1.085170
  C       1.432016     -2.670086     -0.023859
  C       1.259639     -1.956252      2.156764
  N      -1.045906      0.118199     -0.504272
  C      -2.325927      0.352536      0.184939
  C      -3.108373      1.536933     -0.364652
  H      -3.940340      1.750529      0.304857
  H      -3.542240      1.340823     -1.346045
  H      -2.497318      2.437802     -0.424453
  C      -3.157879     -0.924633      0.161241
  H      -2.054353      0.575583      1.217698
  H      -4.072735     -0.781689      0.734862
  H      -3.441828     -1.190412     -0.857866
  H      -2.626439     -1.768174      0.598832
  C      -0.884204      0.412488     -1.741268
  C       0.438874      0.251611     -2.273307
  H      -1.698157      0.797882     -2.348052
  C       1.525394      0.211165     -1.408347
  C       2.721379     -0.061840     -2.130026
  S       0.868070      0.000764     -3.901444
  C       2.514115     -0.189873     -3.471348
  H       1.602697      1.205700     -0.583364
  H       3.703641     -0.103894     -1.682467
  H       3.250565     -0.366411     -4.240615
  H      -0.704581     -3.234242     -0.237973
  H      -0.925793     -2.399100      2.344520
  H       1.494586     -1.525099      3.119726
  O       1.621437      2.320671      0.164803
  O       0.550245      0.991238      1.592938
  C       1.066746      2.107419      1.257639
  C       1.014858      3.202407      2.281426
  H       0.971504      4.177267      1.802499
  H       1.928894      3.170028      2.877322
  H       0.173001      3.077901      2.957554
  H       3.224180     -1.897672      1.109115
  H       1.838746     -2.920857     -0.992579
39
Coordinates from ORCA-job reaction4-IEIP_ts_guess_scan_7-11_orca E -1288.401006366705
  Ir      0.605756     -0.736131      0.475270
  C       0.091877     -2.834399      0.373115
  C      -0.042290     -2.365460      1.728032
  C       2.165866     -2.112352      1.091732
  C       1.435559     -2.669233     -0.020043
  C       1.253769     -1.955454      2.159625
  N      -1.046484      0.119591     -0.503339
  C      -2.326873      0.350935      0.186024
  C      -3.111563      1.534496     -0.362379
  H      -3.943516      1.746133      0.307754
  H      -3.545522      1.338367     -1.343733
  H      -2.502089      2.436461     -0.421806
  C      -3.156733     -0.927534      0.160187
  H      -2.055956      0.573472      1.219059
  H      -4.072812     -0.786574      0.732380
  H      -3.438623     -1.192947     -0.859589
  H      -2.624902     -1.770758      0.597828
  C      -0.884671      0.417871     -1.739554
  C       0.437916      0.257685     -2.272500
  H      -1.698570      0.805246     -2.345091
  C       1.525234      0.208887     -1.409272
  C       2.719268     -0.065734     -2.133222
  S       0.864950      0.013018     -3.902668
  C       2.509957     -0.186627     -3.475112
  H       1.612614      1.199453     -0.579372
  H       3.701933     -0.113522     -1.687142
  H       3.244999     -0.362603     -4.245863
  H      -0.699422     -3.235720     -0.243318
  H      -0.931831     -2.400217      2.338805
  H       1.484537     -1.524024      3.123480
  O       1.641133      2.313319      0.170131
  O       0.548364      0.993289      1.590783
  C       1.074105      2.106119      1.257812
  C       1.017303      3.204444      2.277658
  H       0.975255      4.177309      1.794454
  H       1.929179      3.175208      2.876953
  H       0.172783      3.082189      2.950782
  H       3.222558     -1.895189      1.119996
  H       1.846312     -2.919826     -0.987117
39
Coordinates from ORCA-job reaction4-IEIP_ts_guess_scan_7-11_orca E -1288.401002087132
  Ir      0.604761     -0.735630      0.475455
  C       0.094536     -2.834833      0.371584
  C      -0.048315     -2.365261      1.725569
  C       2.163352     -2.109243      1.102391
  C       1.440475     -2.668020     -0.012986
  C       1.244270     -1.953133      2.164695
  N      -1.047614      0.121062     -0.502196
  C      -2.328887      0.347822      0.186874
  C      -3.116854      1.530227     -0.359516
  H      -3.949281      1.738400      0.311064
  H      -3.550315      1.334400     -1.341165
  H      -2.509931      2.434013     -0.417493
  C      -3.155660     -0.932581      0.157341
  H      -2.059224      0.569076      1.220533
  H      -4.073233     -0.794955      0.727971
  H      -3.434983     -1.196685     -0.863487
  H      -2.622896     -1.775566      0.594230
  C      -0.885336      0.425614     -1.736867
  C       0.436348      0.266428     -2.271628
  H      -1.699231      0.816139     -2.340369
  C       1.524798      0.205089     -1.410965
  C       2.715970     -0.070575     -2.139054
  S       0.859543      0.031920     -3.904690
  C       2.503609     -0.179851     -3.481605
  H       1.627843      1.189991     -0.573302
  H       3.699265     -0.126812     -1.695351
  H       3.236560     -0.353985     -4.254768
  H      -0.692002     -3.238411     -0.249410
  H      -0.941120     -2.401450      2.331471
  H       1.468523     -1.520761      3.129675
  O       1.672343      2.301380      0.179093
  O       0.545412      0.996644      1.587184
  C       1.086284      2.103502      1.258501
  C       1.023163      3.206972      2.272258
  H       0.982701      4.176908      1.782877
  H       1.932393      3.182650      2.875699
  H       0.175286      3.087986      2.941616
  H       3.219544     -1.890622      1.136982
  H       1.857273     -2.918658     -0.977473
39
Coordinates from ORCA-job reaction4-IEIP_ts_guess_scan_7-11_orca E -1288.400999445938
  Ir      0.603956     -0.735025      0.475285
  C       0.095537     -2.835055      0.371847
  C      -0.051320     -2.364810      1.725150
  C       2.161726     -2.106944      1.107618
  C       1.442408     -2.667478     -0.008962
  C       1.239322     -1.950986      2.167357
  N      -1.048516      0.121005     -0.502057
  C      -2.330379      0.345748      0.186567
  C      -3.119569      1.527929     -0.358490
  H      -3.952630      1.734052      0.311896
  H      -3.552266      1.332805     -1.340624
  H      -2.513831      2.432620     -0.414829
  C      -3.155924     -0.935438      0.154866
  H      -2.061390      0.565784      1.220692
  H      -4.073651     -0.799702      0.725683
  H      -3.434931     -1.197982     -0.866453
  H      -2.622315     -1.778678      0.590259
  C      -0.885801      0.428288     -1.735807
  C       0.435443      0.269502     -2.271622
  H      -1.699721      0.820252     -2.338393
  C       1.524338      0.203738     -1.411941
  C       2.714426     -0.071641     -2.142154
  S       0.856552      0.039215     -3.905633
  C       2.500880     -0.176040     -3.484792
  H       1.634671      1.186471     -0.570852
  H       3.698005     -0.130863     -1.699431
  H       3.233024     -0.348876     -4.259000
  H      -0.688900     -3.240108     -0.250821
  H      -0.945581     -2.401624      2.328857
  H       1.460335     -1.517690      3.132674
  O       1.687455      2.296037      0.183696
  O       0.544031      0.998638      1.585143
  C       1.092729      2.102132      1.259172
  C       1.027926      3.207691      2.270505
  H       0.986515      4.176492      1.778873
  H       1.937221      3.186339      2.873948
  H       0.179934      3.089252      2.939767
  H       3.217662     -1.887576      1.144951
  H       1.861995     -2.918284     -0.972204
39
Coordinates from ORCA-job reaction4-IEIP_ts_guess_scan_7-11_orca E -1288.401000320778
  Ir      0.603148     -0.734218      0.474943
  C       0.096254     -2.835109      0.372799
  C      -0.052587     -2.364335      1.725578
  C       2.160778     -2.104388      1.110207
  C       1.443423     -2.666827     -0.006521
  C       1.236690     -1.948597      2.168803
  N      -1.049628      0.119847     -0.502713
  C      -2.331839      0.344269      0.185479
  C      -3.120701      1.527059     -0.358477
  H      -3.954536      1.731976      0.311294
  H      -3.552411      1.333224     -1.341305
  H      -2.515135      2.431991     -0.412763
  C      -3.157515     -0.936865      0.152365
  H      -2.063120      0.562925      1.219998
  H      -4.074348     -0.802194      0.724830
  H      -3.437973     -1.197305     -0.869094
  H      -2.623080     -1.780888      0.585305
  C      -0.886582      0.427398     -1.736028
  C       0.434567      0.268666     -2.272375
  H      -1.700557      0.819622     -2.338467
  C       1.523502      0.203896     -1.412619
  C       2.713694     -0.070315     -2.143622
  S       0.854697      0.038492     -3.906064
  C       2.500154     -0.174507     -3.486010
  H       1.636300      1.186564     -0.570859
  H       3.697336     -0.128825     -1.700891
  H       3.232305     -0.346445     -4.260389
  H      -0.687306     -3.241395     -0.250165
  H      -0.947531     -2.401555      2.328244
  H       1.455807     -1.514318      3.134114
  O       1.693369      2.294503      0.185764
  O       0.543170      0.999782      1.583884
  C       1.095872      2.101321      1.259922
  C       1.032695      3.206957      2.271349
  H       0.986884      4.175706      1.779956
  H       1.944814      3.188467      2.870633
  H       0.187848      3.086510      2.944199
  H       3.216539     -1.884394      1.148641
  H       1.864373     -2.917507     -0.969209
39
Coordinates from ORCA-job reaction4-IEIP_ts_guess_scan_7-11_orca E -1288.401001429744
  Ir      0.602581     -0.733880      0.474798
  C       0.096766     -2.835034      0.372835
  C      -0.053022     -2.364187      1.725478
  C       2.160485     -2.102962      1.111084
  C       1.444071     -2.666241     -0.005822
  C       1.235693     -1.947471      2.169206
  N      -1.050385      0.119169     -0.503221
  C      -2.332664      0.343614      0.184917
  C      -3.120995      1.526975     -0.358437
  H      -3.955187      1.731439      0.311039
  H      -3.552235      1.334105     -1.341658
  H      -2.515237      2.431840     -0.411558
  C      -3.158589     -0.937366      0.151052
  H      -2.064028      0.561516      1.219612
  H      -4.074773     -0.803229      0.724673
  H      -3.440113     -1.196549     -0.870429
  H      -2.623711     -1.781935      0.582419
  C      -0.887326      0.426168     -1.736584
  C       0.433975      0.267556     -2.272809
  H      -1.701333      0.818001     -2.339264
  C       1.522766      0.204474     -1.412728
  C       2.713340     -0.069347     -2.143430
  S       0.854305      0.036329     -3.906053
  C       2.500233     -0.174737     -3.485719
  H       1.635648      1.187401     -0.571581
  H       3.696868     -0.126719     -1.700288
  H       3.232608     -0.346550     -4.259903
  H      -0.686406     -3.241813     -0.250300
  H      -0.948348     -2.401578      2.327569
  H       1.453944     -1.512771      3.134524
  O       1.694172      2.294563      0.186069
  O       0.542653      1.000320      1.583413
  C       1.096707      2.101247      1.260234
  C       1.035471      3.206476      2.272312
  H       0.985220      4.175272      1.781402
  H       1.950462      3.190267      2.867271
  H       0.193952      3.083974      2.948929
  H       3.216151     -1.882609      1.150024
  H       1.865652     -2.916539     -0.968334
