39
Coordinates from ORCA-job reaction4-IEIP_ts_guess_scan_11-6_orca E -1288.400274084041
  Ir      0.617759     -0.711548      0.416048
  C       0.128274     -2.825328      0.330642
  C      -0.017933     -2.363255      1.685699
  C       2.188256     -2.066908      1.052727
  C       1.472629     -2.644252     -0.056280
  C       1.264581     -1.924273      2.118484
  N      -1.065064      0.135288     -0.521093
  C      -2.334751      0.358184      0.187477
  C      -3.138522      1.533510     -0.349954
  H      -3.965117      1.734393      0.329918
  H      -3.581478      1.332845     -1.326456
  H      -2.540249      2.442601     -0.414443
  C      -3.153013     -0.928444      0.174127
  H      -2.047750      0.581934      1.215910
  H      -4.058141     -0.797077      0.765617
  H      -3.453354     -1.193271     -0.840470
  H      -2.604087     -1.767650      0.598050
  C      -0.912399      0.450929     -1.748276
  C       0.409996      0.263243     -2.257671
  H      -1.716807      0.861996     -2.350028
  C       1.458834      0.139404     -1.344431
  C       2.670516     -0.150598     -2.045843
  S       0.883410      0.047407     -3.871363
  C       2.506849     -0.224226     -3.394536
  H       1.588504      1.135450     -0.592374
  H       3.635408     -0.239228     -1.567999
  H       3.261919     -0.400910     -4.145428
  H      -0.653451     -3.243305     -0.286894
  H      -0.910542     -2.407974      2.291008
  H       1.483191     -1.484182      3.081246
  O       1.680137      2.330632      0.158191
  O       0.543155      1.010380      1.541733
  C       1.093048      2.121366      1.229580
  C       1.028147      3.205702      2.266116
  H       1.014321      4.186049      1.796593
  H       1.923737      3.152192      2.887686
  H       0.164969      3.088820      2.916329
  H       3.243061     -1.842390      1.090165
  H       1.891326     -2.898317     -1.019066
39
Coordinates from ORCA-job reaction4-IEIP_ts_guess_scan_11-6_orca E -1288.400325793265
  Ir      0.616731     -0.704656      0.411843
  C       0.132181     -2.822240      0.329862
  C      -0.014433     -2.361624      1.685225
  C       2.189734     -2.057959      1.051383
  C       1.475916     -2.638025     -0.057215
  C       1.265610     -1.917965      2.116819
  N      -1.071180      0.135405     -0.522414
  C      -2.340411      0.358240      0.187107
  C      -3.146456      1.530685     -0.353194
  H      -3.973133      1.731972      0.326419
  H      -3.589348      1.326473     -1.328999
  H      -2.549871      2.440707     -0.420494
  C      -3.156763     -0.929613      0.178193
  H      -2.053010      0.585380      1.214720
  H      -4.061660     -0.798001      0.769978
  H      -3.457506     -1.197819     -0.835413
  H      -2.606243     -1.766773      0.604100
  C      -0.917646      0.447267     -1.755255
  C       0.407468      0.260629     -2.267759
  H      -1.723241      0.854748     -2.357830
  C       1.455436      0.139760     -1.352909
  C       2.667818     -0.153221     -2.052473
  S       0.882597      0.041240     -3.880551
  C       2.505278     -0.231933     -3.400953
  H       1.591139      1.157970     -0.618689
  H       3.632552     -0.239331     -1.573671
  H       3.261092     -0.412098     -4.150170
  H      -0.648394     -3.243056     -0.287237
  H      -0.906324     -2.409670      2.291234
  H       1.483054     -1.477538      3.079693
  O       1.738849      2.303226      0.197874
  O       0.530288      1.016156      1.544001
  C       1.109423      2.115401      1.249293
  C       1.030753      3.206444      2.277518
  H       1.051935      4.184376      1.803168
  H       1.903655      3.139076      2.929291
  H       0.143948      3.109646      2.898450
  H       3.244131     -1.831604      1.089365
  H       1.895400     -2.892485     -1.019569
39
Coordinates from ORCA-job reaction4-IEIP_ts_guess_scan_11-6_orca E -1288.399493474127
  Ir      0.626450     -0.710580      0.412969
  C       0.132682     -2.831001      0.326355
  C      -0.010187     -2.380379      1.685129
  C       2.192211     -2.077417      1.049603
  C       1.476542     -2.649818     -0.061227
  C       1.268640     -1.941120      2.115883
  N      -1.060922      0.140874     -0.509883
  C      -2.329133      0.365480      0.200278
  C      -3.126490      1.547471     -0.332011
  H      -3.953833      1.747987      0.346943
  H      -3.567612      1.354146     -1.310852
  H      -2.524283      2.454462     -0.389991
  C      -3.153738     -0.916912      0.179055
  H      -2.042065      0.581913      1.230332
  H      -4.058841     -0.784749      0.770389
  H      -3.454469     -1.174441     -0.837347
  H      -2.609291     -1.761214      0.598661
  C      -0.898524      0.464779     -1.748310
  C       0.430698      0.273808     -2.269301
  H      -1.701304      0.882801     -2.347320
  C       1.474479      0.121763     -1.353063
  C       2.682919     -0.188814     -2.053487
  S       0.906157      0.064927     -3.883476
  C       2.522116     -0.248820     -3.402882
  H       1.651353      1.165368     -0.635315
  H       3.645197     -0.297103     -1.573885
  H       3.276373     -0.436211     -4.151736
  H      -0.649628     -3.246936     -0.291924
  H      -0.900771     -2.430803      2.292627
  H       1.488123     -1.507703      3.081464
  O       1.545958      2.352979      0.125393
  O       0.534613      1.007060      1.565705
  C       1.033784      2.132244      1.233909
  C       0.992984      3.218025      2.268916
  H       0.916671      4.195438      1.799069
  H       1.925397      3.198780      2.835931
  H       0.174531      3.073040      2.969006
  H       3.247799     -1.857055      1.089601
  H       1.894785     -2.903079     -1.024469
39
Coordinates from ORCA-job reaction4-IEIP_ts_guess_scan_11-6_orca E -1288.400606215306
  Ir      0.618175     -0.711975      0.414777
  C       0.123459     -2.829199      0.338986
  C      -0.017768     -2.369391      1.694885
  C       2.185204     -2.072866      1.055010
  C       1.467165     -2.650904     -0.051604
  C       1.263395     -1.929111      2.122207
  N      -1.067276      0.133838     -0.516875
  C      -2.336849      0.356115      0.190595
  C      -3.138390      1.533148     -0.346367
  H      -3.967013      1.732925      0.331329
  H      -3.578091      1.334771     -1.324814
  H      -2.539468      2.442088     -0.407037
  C      -3.155961     -0.929888      0.173225
  H      -2.051141      0.577256      1.219927
  H      -4.061930     -0.799344      0.763605
  H      -3.454904     -1.192231     -0.842433
  H      -2.608095     -1.770341      0.596141
  C      -0.910641      0.452528     -1.750072
  C       0.415610      0.268441     -2.266117
  H      -1.715487      0.865804     -2.349551
  C       1.460576      0.128188     -1.350245
  C       2.674891     -0.158482     -2.050167
  S       0.893992      0.066858     -3.879993
  C       2.516199     -0.213372     -3.400289
  H       1.603434      1.152144     -0.612814
  H       3.638140     -0.253286     -1.569934
  H       3.274111     -0.382109     -4.150077
  H      -0.660151     -3.247508     -0.275963
  H      -0.908181     -2.414313      2.303217
  H       1.484541     -1.489304      3.084508
  O       1.663042      2.341788      0.149680
  O       0.545323      1.012963      1.543426
  C       1.086773      2.126148      1.227821
  C       1.027435      3.209792      2.264250
  H       0.999896      4.190104      1.795213
  H       1.931515      3.163297      2.873971
  H       0.173525      3.085577      2.925044
  H       3.240779     -1.851972      1.091602
  H       1.883533     -2.908987     -1.014328
39
Coordinates from ORCA-job reaction4-IEIP_ts_guess_scan_11-6_orca E -1288.400637793369
  Ir      0.617809     -0.711774      0.415204
  C       0.122120     -2.828221      0.341890
  C      -0.019609     -2.367922      1.697379
  C       2.183791     -2.072361      1.058190
  C       1.466224     -2.650952     -0.048226
  C       1.261366     -1.927656      2.124804
  N      -1.066698      0.133252     -0.518117
  C      -2.336745      0.353951      0.189037
  C      -3.140155      1.530069     -0.347253
  H      -3.968888      1.728502      0.330709
  H      -3.579904      1.331383     -1.325595
  H      -2.542479      2.439823     -0.407825
  C      -3.154348     -0.933082      0.171974
  H      -2.051193      0.575236      1.218458
  H      -4.060449     -0.803588      0.762413
  H      -3.452968     -1.195945     -0.843634
  H      -2.605347     -1.772709      0.595017
  C      -0.911049      0.453708     -1.749508
  C       0.413718      0.271113     -2.266464
  H      -1.716505      0.867738     -2.347570
  C       1.458787      0.126273     -1.351502
  C       2.672591     -0.158061     -2.052846
  S       0.893109      0.085900     -3.881844
  C       2.513046     -0.208359     -3.403094
  H       1.602833      1.153286     -0.618455
  H       3.635447     -0.258758     -1.573184
  H       3.270086     -0.377301     -4.153723
  H      -0.661310     -3.246582     -0.273219
  H      -0.910502     -2.411708      2.305105
  H       1.482216     -1.487026      3.086807
  O       1.686514      2.331657      0.159133
  O       0.545263      1.013737      1.541745
  C       1.095038      2.122992      1.230328
  C       1.029369      3.210616      2.262634
  H       1.011545      4.189559      1.790234
  H       1.926538      3.162039      2.882333
  H       0.167711      3.092590      2.914486
  H       3.239466     -1.852075      1.095407
  H       1.882930     -2.910156     -1.010488
39
Coordinates from ORCA-job reaction4-IEIP_ts_guess_scan_11-6_orca E -1288.400666076205
  Ir      0.616800     -0.714510      0.416968
  C       0.117131     -2.829751      0.349433
  C      -0.023885     -2.368041      1.704343
  C       2.179917     -2.076431      1.064342
  C       1.461770     -2.655676     -0.041088
  C       1.257306     -1.928672      2.130636
  N      -1.066316      0.131993     -0.518384
  C      -2.337537      0.349855      0.187777
  C      -3.142500      1.525694     -0.346842
  H      -3.971925      1.721608      0.330961
  H      -3.581440      1.328046     -1.325760
  H      -2.546181      2.436474     -0.405487
  C      -3.153634     -0.938171      0.168303
  H      -2.053230      0.569773      1.217907
  H      -4.060597     -0.810489      0.757814
  H      -3.450654     -1.200213     -0.847986
  H      -2.604086     -1.777523      0.591066
  C      -0.910271      0.457238     -1.748109
  C       0.413252      0.275770     -2.266783
  H      -1.716126      0.873013     -2.344404
  C       1.457168      0.118805     -1.352265
  C       2.671475     -0.158790     -2.055339
  S       0.893708      0.106700     -3.883410
  C       2.514227     -0.187255     -3.406566
  H       1.605113      1.150782     -0.622999
  H       3.633517     -0.267039     -1.575775
  H       3.272500     -0.344649     -4.158478
  H      -0.666852     -3.247860     -0.265133
  H      -0.915027     -2.409026      2.311875
  H       1.478837     -1.486559      3.091816
  O       1.700249      2.325728      0.158445
  O       0.549128      1.014961      1.539024
  C       1.103363      2.121058      1.227825
  C       1.035925      3.213190      2.255532
  H       1.019748      4.190222      1.779108
  H       1.931702      3.166812      2.877392
  H       0.172663      3.098328      2.905828
  H       3.236047     -1.858426      1.101875
  H       1.878084     -2.917779     -1.002721
39
Coordinates from ORCA-job reaction4-IEIP_ts_guess_scan_11-6_orca E -1288.400694201388
  Ir      0.614921     -0.720707      0.419615
  C       0.109269     -2.833824      0.362326
  C      -0.031627     -2.369504      1.716199
  C       2.173196     -2.083907      1.076219
  C       1.455097     -2.664809     -0.027960
  C       1.249413     -1.930921      2.141325
  N      -1.065462      0.128605     -0.518776
  C      -2.338175      0.342055      0.186476
  C      -3.145030      1.518278     -0.344401
  H      -3.975108      1.710109      0.333679
  H      -3.583209      1.323287     -1.324214
  H      -2.550395      2.430404     -0.399518
  C      -3.152608     -0.946985      0.162107
  H      -2.055589      0.558887      1.217836
  H      -4.061049     -0.821839      0.749856
  H      -3.446907     -1.206943     -0.855512
  H      -2.603023     -1.786558      0.584176
  C      -0.908002      0.464888     -1.745494
  C       0.414452      0.287664     -2.266780
  H      -1.713794      0.886589     -2.337686
  C       1.455378      0.105026     -1.353127
  C       2.670715     -0.160526     -2.059229
  S       0.900231      0.162495     -3.885467
  C       2.516960     -0.154969     -3.411287
  H       1.611703      1.144143     -0.627209
  H       3.630578     -0.287613     -1.579944
  H       3.276488     -0.298298     -4.164763
  H      -0.674984     -3.252067     -0.251805
  H      -0.923594     -2.405864      2.322758
  H       1.471301     -1.485831      3.101067
  O       1.706677      2.323945      0.146905
  O       0.555566      1.016765      1.532307
  C       1.109342      2.120846      1.217407
  C       1.046333      3.217106      2.241227
  H       1.023802      4.192049      1.760820
  H       1.946896      3.176266      2.856514
  H       0.188098      3.102377      2.898112
  H       3.229988     -1.869421      1.115094
  H       1.871524     -2.932006     -0.988116
39
Coordinates from ORCA-job reaction4-IEIP_ts_guess_scan_11-6_orca E -1288.400702130420
  Ir      0.615151     -0.723469      0.419519
  C       0.108598     -2.835792      0.363540
  C      -0.034241     -2.370644      1.717029
  C       2.171817     -2.086425      1.080402
  C       1.455334     -2.667858     -0.024503
  C       1.246293     -1.932215      2.143910
  N      -1.064029      0.127656     -0.518802
  C      -2.335955      0.341608      0.187646
  C      -3.142458      1.518547     -0.342098
  H      -3.971687      1.710578      0.336965
  H      -3.581718      1.324251     -1.321571
  H      -2.547340      2.430360     -0.397381
  C      -3.151244     -0.946817      0.163180
  H      -2.052473      0.557999      1.218845
  H      -4.059693     -0.820896      0.750757
  H      -3.445558     -1.206581     -0.854468
  H      -2.602506     -1.786884      0.585370
  C      -0.906650      0.467187     -1.744871
  C       0.415328      0.289592     -2.267092
  H      -1.712133      0.891462     -2.335570
  C       1.455617      0.100159     -1.354198
  C       2.670983     -0.162092     -2.061362
  S       0.901664      0.173515     -3.886316
  C       2.517960     -0.147104     -3.413502
  H       1.614744      1.140520     -0.628623
  H       3.630465     -0.293836     -1.582519
  H       3.277840     -0.285799     -4.167484
  H      -0.674658     -3.254325     -0.251659
  H      -0.927246     -2.406019      2.322109
  H       1.466891     -1.486328      3.103578
  O       1.701070      2.323569      0.141536
  O       0.555410      1.015198      1.530349
  C       1.107403      2.119701      1.214111
  C       1.043717      3.217056      2.236616
  H       1.014723      4.191094      1.754695
  H       1.947204      3.181285      2.847903
  H       0.188843      3.099527      2.897340
  H       3.228654     -1.872467      1.121061
  H       1.873251     -2.936121     -0.983704
39
Coordinates from ORCA-job reaction4-IEIP_ts_guess_scan_11-6_orca E -1288.400704072124
  Ir      0.615175     -0.724492      0.419107
  C       0.109358     -2.836639      0.363417
  C      -0.036108     -2.370466      1.716433
  C       2.171184     -2.086453      1.083955
  C       1.456920     -2.668749     -0.021934
  C       1.243607     -1.931673      2.145615
  N      -1.063903      0.127382     -0.519078
  C      -2.335491      0.341028      0.188165
  C      -3.142247      1.518242     -0.340610
  H      -3.971094      1.709803      0.339066
  H      -3.581981      1.324505     -1.319977
  H      -2.547275      2.430177     -0.395610
  C      -3.150831     -0.947307      0.162994
  H      -2.051662      0.557023      1.219315
  H      -4.059523     -0.821418      0.750217
  H      -3.444764     -1.206735     -0.854841
  H      -2.602501     -1.787667      0.585099
  C      -0.906560      0.468859     -1.744813
  C       0.415257      0.290597     -2.267438
  H      -1.711769      0.894594     -2.334771
  C       1.455449      0.098072     -1.355194
  C       2.670685     -0.162769     -2.062948
  S       0.901654      0.178322     -3.887017
  C       2.517670     -0.144166     -3.415096
  H       1.615908      1.138082     -0.628640
  H       3.630073     -0.296682     -1.584491
  H       3.277567     -0.281215     -4.169355
  H      -0.672471     -3.256039     -0.253002
  H      -0.930208     -2.405645      2.319907
  H       1.462332     -1.485074      3.105375
  O       1.700568      2.322395      0.139761
  O       0.554326      1.015179      1.529143
  C       1.106104      2.119756      1.212105
  C       1.044465      3.216801      2.234941
  H       1.013044      4.190754      1.752968
  H       1.949978      3.182036      2.843289
  H       0.191765      3.098504      2.898287
  H       3.227886     -1.872198      1.126546
  H       1.876783     -2.937532     -0.980145
39
Coordinates from ORCA-job reaction4-IEIP_ts_guess_scan_11-6_orca E -1288.400702343120
  Ir      0.615456     -0.725491      0.418286
  C       0.111372     -2.837584      0.362048
  C      -0.038948     -2.369941      1.714293
  C       2.170489     -2.085773      1.089471
  C       1.460339     -2.669324     -0.018361
  C       1.239155     -1.930570      2.147841
  N      -1.063815      0.127540     -0.519052
  C      -2.334965      0.340240      0.189366
  C      -3.142187      1.518068     -0.337423
  H      -3.970659      1.708390      0.343074
  H      -3.582337      1.325688     -1.316864
  H      -2.547572      2.430315     -0.391290
  C      -3.150239     -0.948050      0.162189
  H      -2.050753      0.555098      1.220592
  H      -4.059373     -0.822776      0.748885
  H      -3.443487     -1.206274     -0.856141
  H      -2.602446     -1.789110      0.583548
  C      -0.906724      0.471743     -1.744274
  C       0.414743      0.292326     -2.267747
  H      -1.711578      0.899756     -2.332992
  C       1.455165      0.095860     -1.356844
  C       2.669775     -0.164102     -2.065720
  S       0.900571      0.184546     -3.888009
  C       2.515998     -0.142178     -3.417811
  H       1.617858      1.134177     -0.627649
  H       3.629193     -0.301036     -1.588162
  H       3.275431     -0.278549     -4.172653
  H      -0.667817     -3.258514     -0.256656
  H      -0.934969     -2.405252      2.314914
  H       1.454341     -1.483093      3.107983
  O       1.705102      2.319014      0.139653
  O       0.553423      1.015070      1.527657
  C       1.108714      2.118443      1.211196
  C       1.044818      3.216791      2.232265
  H       1.009646      4.189736      1.748413
  H       1.951518      3.186165      2.839037
  H       0.193471      3.097116      2.897027
  H       3.226890     -1.870770      1.135555
  H       1.883771     -2.938503     -0.974904
39
Coordinates from ORCA-job reaction4-IEIP_ts_guess_scan_11-6_orca E -1288.400701055422
  Ir      0.615483     -0.724808      0.417662
  C       0.114141     -2.837413      0.360138
  C      -0.041315     -2.368898      1.711679
  C       2.170020     -2.083019      1.094564
  C       1.464346     -2.667891     -0.015296
  C       1.234767     -1.928411      2.149685
  N      -1.064185      0.128085     -0.518827
  C      -2.335335      0.339375      0.189907
  C      -3.143029      1.517631     -0.335284
  H      -3.971744      1.706433      0.345329
  H      -3.582754      1.326565     -1.315170
  H      -2.548917      2.430301     -0.387499
  C      -3.150105     -0.949183      0.160309
  H      -2.051302      0.552983      1.221432
  H      -4.059668     -0.825228      0.746638
  H      -3.442653     -1.205856     -0.858613
  H      -2.602335     -1.790858      0.580469
  C      -0.907542      0.473386     -1.743733
  C       0.413469      0.293423     -2.268062
  H      -1.712450      0.902373     -2.331655
  C       1.454421      0.095476     -1.358326
  C       2.668125     -0.165453     -2.068169
  S       0.897824      0.185575     -3.888922
  C       2.513206     -0.142789     -3.420169
  H       1.619237      1.131951     -0.627011
  H       3.627805     -0.303581     -1.591504
  H       3.271970     -0.279868     -4.175558
  H      -0.662228     -3.260065     -0.260911
  H      -0.939211     -2.405131      2.309453
  H       1.446042     -1.480337      3.110416
  O       1.711359      2.315599      0.141556
  O       0.552304      1.015639      1.526865
  C       1.111222      2.117616      1.211318
  C       1.047556      3.216391      2.231870
  H       1.010213      4.188946      1.747307
  H       1.955582      3.187729      2.836750
  H       0.197577      3.096113      2.898201
  H       3.226002     -1.866760      1.144168
  H       1.891469     -2.936853     -0.970267
39
Coordinates from ORCA-job reaction4-IEIP_ts_guess_scan_11-6_orca E -1288.400699539900
  Ir      0.615439     -0.723250      0.417266
  C       0.119225     -2.837217      0.356953
  C      -0.044624     -2.368460      1.707637
  C       2.169451     -2.078026      1.102783
  C       1.471262     -2.664901     -0.010471
  C       1.227756     -1.925575      2.152821
  N      -1.065260      0.128660     -0.518156
  C      -2.336847      0.337539      0.190388
  C      -3.144537      1.517304     -0.331518
  H      -3.973982      1.703461      0.348903
  H      -3.583146      1.329442     -1.312516
  H      -2.550669      2.430332     -0.379982
  C      -3.151318     -0.951122      0.155616
  H      -2.053591      0.547970      1.222796
  H      -4.061298     -0.829817      0.741862
  H      -3.443180     -1.203879     -0.864493
  H      -2.603558     -1.794408      0.572552
  C      -0.909287      0.474602     -1.742794
  C       0.411029      0.294756     -2.268452
  H      -1.714611      0.904094     -2.329801
  C       1.452796      0.095486     -1.360181
  C       2.665183     -0.167367     -2.071429
  S       0.892975      0.185514     -3.890085
  C       2.508436     -0.144801     -3.423259
  H       1.620934      1.129673     -0.626224
  H       3.625373     -0.306259     -1.596036
  H       3.266159     -0.283359     -4.179431
  H      -0.652487     -3.262605     -0.267991
  H      -0.945491     -2.406963      2.300798
  H       1.432440     -1.476953      3.114726
  O       1.720956      2.311409      0.144295
  O       0.551965      1.017227      1.526364
  C       1.116393      2.116771      1.212052
  C       1.053644      3.216674      2.231484
  H       1.010863      4.188406      1.745595
  H       1.964851      3.192526      2.831752
  H       0.207122      3.094681      2.901806
  H       3.224675     -1.859523      1.158172
  H       1.904329     -2.932853     -0.963062
39
Coordinates from ORCA-job reaction4-IEIP_ts_guess_scan_11-6_orca E -1288.400700819935
  Ir      0.615335     -0.722068      0.417314
  C       0.124317     -2.837369      0.353332
  C      -0.047849     -2.369714      1.703525
  C       2.168725     -2.073517      1.110781
  C       1.478087     -2.661951     -0.006059
  C       1.220611     -1.924176      2.155918
  N      -1.066116      0.128583     -0.517306
  C      -2.337985      0.335826      0.191091
  C      -3.144639      1.517925     -0.327146
  H      -3.974541      1.702131      0.353221
  H      -3.582518      1.333907     -1.309195
  H      -2.550044      2.430661     -0.371856
  C      -3.153019     -0.952367      0.151207
  H      -2.055286      0.542517      1.224427
  H      -4.062741     -0.833485      0.738342
  H      -3.445322     -1.200488     -0.869928
  H      -2.605239     -1.797736      0.563964
  C      -0.910966      0.474182     -1.742006
  C       0.408759      0.294996     -2.268837
  H      -1.716962      0.903308     -2.328423
  C       1.451146      0.095246     -1.361515
  C       2.662656     -0.168916     -2.073833
  S       0.888833      0.184417     -3.890954
  C       2.504548     -0.146662     -3.425513
  H       1.622001      1.128429     -0.626380
  H       3.623298     -0.307790     -1.599347
  H       3.261523     -0.286069     -4.182285
  H      -0.642767     -3.264996     -0.275742
  H      -0.951731     -2.410838      2.291910
  H       1.418635     -1.475469      3.119179
  O       1.726468      2.309292      0.144888
  O       0.552495      1.018607      1.525939
  C       1.120074      2.116448      1.211986
  C       1.058963      3.217441      2.230449
  H       1.007562      4.188202      1.743351
  H       1.974954      3.199606      2.823603
  H       0.217967      3.092185      2.907024
  H       3.223167     -1.852882      1.172088
  H       1.916967     -2.928225     -0.956473
39
Coordinates from ORCA-job reaction4-IEIP_ts_guess_scan_11-6_orca E -1288.400705436118
  Ir      0.615389     -0.721490      0.417893
  C       0.131435     -2.838281      0.347636
  C      -0.052091     -2.373608      1.697584
  C       2.167735     -2.068615      1.121570
  C       1.487530     -2.658458     -0.000531
  C       1.210847     -1.924442      2.160095
  N      -1.066975      0.127620     -0.515917
  C      -2.338889      0.333761      0.192685
  C      -3.142728      1.520156     -0.320035
  H      -3.972771      1.702703      0.360592
  H      -3.580244      1.342227     -1.303363
  H      -2.545866      2.431628     -0.359717
  C      -3.156043     -0.952890      0.145912
  H      -2.056540      0.534734      1.227249
  H      -4.064612     -0.836724      0.735354
  H      -3.450316     -1.193884     -0.876382
  H      -2.608526     -1.801752      0.551923
  C      -0.913152      0.471998     -1.741036
  C       0.405952      0.293716     -2.269208
  H      -1.720220      0.899852     -2.326992
  C       1.449068      0.094178     -1.362692
  C       2.659933     -0.170510     -2.076126
  S       0.884289      0.182184     -3.891693
  C       2.500520     -0.148653     -3.427637
  H       1.622535      1.127477     -0.627694
  H       3.621098     -0.308724     -1.602485
  H       3.256815     -0.288217     -4.185063
  H      -0.629309     -3.268261     -0.287480
  H      -0.960246     -2.418460      2.279075
  H       1.399700     -1.476222      3.125425
  O       1.729400      2.308473      0.143042
  O       0.554273      1.020043      1.525320
  C       1.123218      2.116625      1.210651
  C       1.064255      3.219267      2.227604
  H       0.996944      4.188222      1.738706
  H       1.988357      3.212853      2.808246
  H       0.233244      3.087629      2.915127
  H       3.221089     -1.845362      1.191277
  H       1.934272     -2.921603     -0.948175
39
Coordinates from ORCA-job reaction4-IEIP_ts_guess_scan_11-6_orca E -1288.400711372959
  Ir      0.615733     -0.722037      0.418760
  C       0.137429     -2.839508      0.341644
  C      -0.055761     -2.378725      1.691786
  C       2.166769     -2.065977      1.130483
  C       1.495526     -2.656047      0.003423
  C       1.202400     -1.926896      2.163368
  N      -1.067203      0.126193     -0.514392
  C      -2.338731      0.332488      0.194952
  C      -3.139084      1.523355     -0.312776
  H      -3.968740      1.705462      0.368454
  H      -3.576941      1.351151     -1.296967
  H      -2.539283      2.433046     -0.348503
  C      -3.158785     -0.952110      0.142740
  H      -2.056174      0.528333      1.230415
  H      -4.065603     -0.837650      0.735190
  H      -3.456050     -1.186634     -0.880201
  H      -2.611672     -1.804382      0.542237
  C      -0.914750      0.468878     -1.740191
  C       0.404038      0.290962     -2.269255
  H      -1.722793      0.895043     -2.326081
  C       1.447777      0.092573     -1.363073
  C       2.658551     -0.171418     -2.077133
  S       0.881650      0.179375     -3.891817
  C       2.498491     -0.149987     -3.428542
  H       1.622142      1.127303     -0.629956
  H       3.620066     -0.308572     -1.603859
  H       3.254462     -0.288881     -4.186410
  H      -0.617922     -3.270617     -0.299103
  H      -0.967791     -2.426601      2.266934
  H       1.383433     -1.479835      3.130727
  O       1.727969      2.309457      0.139145
  O       0.556745      1.020656      1.524586
  C       1.124028      2.117322      1.208209
  C       1.066087      3.221508      2.223612
  H       0.981240      4.188299      1.733025
  H       1.998215      3.227775      2.791231
  H       0.245767      3.082548      2.922364
  H       3.219215     -1.841001      1.207775
  H       1.948918     -2.915660     -0.942059
39
Coordinates from ORCA-job reaction4-IEIP_ts_guess_scan_11-6_orca E -1288.400716387496
  Ir      0.616369     -0.723280      0.419514
  C       0.140470     -2.840499      0.337403
  C      -0.057610     -2.382786      1.688025
  C       2.166322     -2.066236      1.134766
  C       1.499673     -2.655426      0.004658
  C       1.198122     -1.930247      2.164740
  N      -1.066840      0.125045     -0.513166
  C      -2.337796      0.332408      0.197053
  C      -3.135449      1.526190     -0.308058
  H      -3.964538      1.708918      0.373725
  H      -3.573917      1.357282     -1.292545
  H      -2.533365      2.434434     -0.342033
  C      -3.160332     -0.950483      0.142476
  H      -2.054693      0.525572      1.232827
  H      -4.065676     -0.836210      0.737213
  H      -3.460140     -1.181517     -0.880512
  H      -2.613745     -1.804876      0.538204
  C      -0.915270      0.466363     -1.739568
  C       0.403555      0.288018     -2.268892
  H      -1.723774      0.891309     -2.325700
  C       1.447755      0.091156     -1.362705
  C       2.658791     -0.171502     -2.076881
  S       0.881316      0.176940     -3.891351
  C       2.498650     -0.150522     -3.428265
  H       1.621148      1.127738     -0.632175
  H       3.620438     -0.307681     -1.603570
  H       3.254582     -0.288492     -4.186335
  H      -0.612158     -3.271373     -0.306691
  H      -0.971877     -2.431888      2.259509
  H       1.375222     -1.484577      3.133462
  O       1.723964      2.311255      0.135238
  O       0.558968      1.020320      1.524059
  C       1.122805      2.118151      1.205803
  C       1.064233      3.223226      2.220158
  H       0.966601      4.188311      1.728484
  H       2.001456      3.238933      2.779087
  H       0.251294      3.078625      2.926304
  H       3.218373     -1.840966      1.216395
  H       1.956444     -2.912443     -0.939919
39
Coordinates from ORCA-job reaction4-IEIP_ts_guess_scan_11-6_orca E -1288.400718412620
  Ir      0.616978     -0.724237      0.419807
  C       0.140714     -2.840880      0.335838
  C      -0.057912     -2.384232      1.686813
  C       2.166341     -2.067805      1.135069
  C       1.500196     -2.656006      0.004140
  C       1.197633     -1.932395      2.164645
  N      -1.066231      0.124759     -0.512553
  C      -2.336804      0.333002      0.198168
  C      -3.133603      1.527490     -0.306673
  H      -3.962384      1.710860      0.375333
  H      -3.572417      1.359139     -1.291097
  H      -2.530821      2.435274     -0.340654
  C      -3.160330     -0.949233      0.143714
  H      -2.053248      0.525954      1.233833
  H      -4.065143     -0.834382      0.739157
  H      -3.461089     -1.179876     -0.879075
  H      -2.614107     -1.804129      0.538857
  C      -0.914899      0.465647     -1.739163
  C       0.404016      0.286577     -2.268427
  H      -1.723328      0.890453     -2.325467
  C       1.448450      0.090499     -1.362236
  C       2.659642     -0.171347     -2.076375
  S       0.882020      0.175945     -3.890844
  C       2.499543     -0.150578     -3.427769
  H       1.620414      1.128100     -0.633261
  H       3.621293     -0.307210     -1.602981
  H       3.255470     -0.288114     -4.185920
  H      -0.611630     -3.271042     -0.309061
  H      -0.972697     -2.433033      2.257503
  H       1.374372     -1.487646      3.133852
  O       1.720936      2.312374      0.133287
  O       0.560073      1.019627      1.523876
  C       1.121287      2.118594      1.204528
  C       1.061294      3.223850      2.218525
  H       0.958698      4.188248      1.726462
  H       2.000012      3.243448      2.774793
  H       0.250787      3.076735      2.926922
  H       3.218442     -1.843112      1.217651
  H       1.957402     -2.912127     -0.940474
