39
Generated by autodE on: 2023-08-14. E = -1288.395927 Ha
Ir    0.58620  -0.73351   0.49684
C     0.04114  -2.81783   0.37914
C     0.04629  -2.36069   1.74603
C     2.18244  -2.13912   0.90723
C     1.33697  -2.65670  -0.14475
C     1.39495  -1.99285   2.06429
N    -1.03899   0.13830  -0.50645
C    -2.32007   0.43019   0.15906
C    -3.10462   1.55514  -0.49845
H    -3.93692   1.82968   0.14823
H    -3.53918   1.26685  -1.45669
H    -2.49565   2.44797  -0.64210
C    -3.14647  -0.84642   0.26109
H    -2.04516   0.74770   1.16614
H    -4.06627  -0.64571   0.80855
H    -3.42130  -1.21996  -0.72623
H    -2.61717  -1.63487   0.79408
C    -0.85334   0.36405  -1.75204
C     0.48575   0.18522  -2.25485
H    -1.65557   0.71268  -2.39633
C     1.59151   0.41575  -1.44648
C     2.78823   0.06754  -2.13281
S     0.90075  -0.38713  -3.80839
C     2.56665  -0.37029  -3.40299
H     1.54938   1.32973  -0.61096
H     3.77857   0.19180  -1.71938
H     3.29885  -0.66465  -4.13970
H    -0.81729  -3.18847  -0.16237
H    -0.78190  -2.39257   2.43848
H     1.72842  -1.59133   3.01056
O     1.42904   2.39512   0.22109
O     0.53954   0.94249   1.65969
C     0.97191   2.10634   1.33251
C     0.92642   3.13734   2.42266
H     0.88219   4.13965   2.00520
H     1.84073   3.06515   3.01506
H     0.08810   2.97373   3.09589
H     3.23534  -1.91554   0.82289
H     1.64989  -2.88559  -1.15302
