39
Coordinates from ORCA-job reaction4-IEIP_ts_guess_scan_12-13_orca E -1288.405579124859
  Ir      0.610633     -0.737463      0.416938
  C       0.133157     -2.846397      0.347892
  C      -0.099622     -2.391452      1.694689
  C       2.139150     -2.070632      1.194270
  C       1.505074     -2.666258      0.052492
  C       1.139482     -1.932726      2.200398
  N      -1.074416      0.109074     -0.513492
  C      -2.350008      0.289244      0.196516
  C      -3.147764      1.498586     -0.270703
  H      -3.980836      1.655546      0.412601
  H      -3.579919      1.365083     -1.263330
  H      -2.547042      2.408429     -0.268888
  C      -3.170348     -0.991769      0.095161
  H      -2.074285      0.449783      1.239982
  H      -4.079940     -0.899308      0.687358
  H      -3.462627     -1.189744     -0.936881
  H      -2.624670     -1.858238      0.465107
  C      -0.923414      0.481084     -1.726079
  C       0.391722      0.313455     -2.249380
  H      -1.731081      0.919315     -2.303481
  C       1.416379      0.029709     -1.347268
  C       2.634295     -0.187891     -2.060030
  S       0.898016      0.343152     -3.870889
  C       2.498304     -0.043918     -3.408836
  H       1.642198      1.167884     -0.612735
  H       3.585634     -0.386971     -1.588037
  H       3.267532     -0.128235     -4.161529
  H      -0.599661     -3.284094     -0.314133
  H      -1.029500     -2.438063      2.240416
  H       1.290312     -1.483444      3.171879
  O       1.767378      2.277622      0.080200
  O       0.584558      1.041952      1.488530
  C       1.162734      2.115197      1.162568
  C       1.144134      3.247307      2.144471
  H       1.012827      4.197600      1.631603
  H       2.107936      3.288260      2.654816
  H       0.366750      3.114355      2.891141
  H       3.189182     -1.848907      1.305572
  H       1.987116     -2.927938     -0.878169
39
Coordinates from ORCA-job reaction4-IEIP_ts_guess_scan_12-13_orca E -1288.405820721114
  Ir      0.610235     -0.737417      0.414479
  C       0.133263     -2.848664      0.348815
  C      -0.097829     -2.395785      1.696472
  C       2.138886     -2.071870      1.193607
  C       1.504597     -2.668247      0.052451
  C       1.139909     -1.935517      2.200162
  N      -1.077455      0.107573     -0.512042
  C      -2.352512      0.288615      0.198901
  C      -3.149029      1.498724     -0.268367
  H      -3.982227      1.656326      0.414601
  H      -3.580844      1.365716     -1.261230
  H      -2.547529      2.408074     -0.266263
  C      -3.174269     -0.991483      0.097697
  H      -2.076520      0.448795      1.242385
  H      -4.083491     -0.898244      0.690325
  H      -3.467289     -1.188963     -0.934249
  H      -2.629324     -1.858581      0.467198
  C      -0.923555      0.480486     -1.729609
  C       0.395062      0.315207     -2.255462
  H      -1.730907      0.919605     -2.306747
  C       1.416229      0.026338     -1.351096
  C       2.635759     -0.191850     -2.061750
  S       0.905915      0.351083     -3.875589
  C       2.503712     -0.043554     -3.410533
  H       1.646858      1.176488     -0.616377
  H       3.585613     -0.393814     -1.587800
  H       3.274796     -0.127962     -4.161233
  H      -0.599787     -3.287326     -0.312342
  H      -1.026758     -2.444010      2.243560
  H       1.291153     -1.486682      3.171777
  O       1.771124      2.285183      0.078391
  O       0.583259      1.044366      1.488402
  C       1.163540      2.118699      1.162560
  C       1.142628      3.250353      2.144615
  H       1.011713      4.200833      1.631940
  H       2.105438      3.291587      2.656788
  H       0.363860      3.116468      2.889594
  H       3.189005     -1.850546      1.304945
  H       1.986139     -2.930818     -0.878237
39
Coordinates from ORCA-job reaction4-IEIP_ts_guess_scan_12-13_orca E -1288.405919794542
  Ir      0.609472     -0.737120      0.413551
  C       0.130803     -2.849293      0.353305
  C      -0.098586     -2.398242      1.701562
  C       2.136657     -2.073120      1.196321
  C       1.502043     -2.670083      0.056092
  C       1.138093     -1.937438      2.203204
  N      -1.078271      0.106853     -0.510613
  C      -2.353105      0.287249      0.199242
  C      -3.149329      1.496953     -0.269479
  H      -3.984092      1.654314      0.411668
  H      -3.578767      1.363523     -1.263311
  H      -2.548206      2.406531     -0.266349
  C      -3.174062     -0.993333      0.098009
  H      -2.077629      0.447686      1.242813
  H      -4.083449     -0.900717      0.690509
  H      -3.466713     -1.191087     -0.933960
  H      -2.628394     -1.859974      0.467692
  C      -0.923463      0.481775     -1.729842
  C       0.395505      0.318342     -2.259769
  H      -1.731865      0.921322     -2.305014
  C       1.413785      0.020261     -1.355533
  C       2.634638     -0.195163     -2.065032
  S       0.908206      0.360452     -3.879188
  C       2.505905     -0.034207     -3.412751
  H       1.651574      1.183820     -0.622559
  H       3.583351     -0.401201     -1.590487
  H       3.278916     -0.112675     -4.162092
  H      -0.602738     -3.288370     -0.307009
  H      -1.026969     -2.446530      2.249523
  H       1.289944     -1.488578      3.174714
  O       1.774965      2.290186      0.076066
  O       0.583685      1.045749      1.486373
  C       1.164864      2.119800      1.161048
  C       1.144810      3.250531      2.143372
  H       1.014923      4.201551      1.631430
  H       2.107412      3.290550      2.656095
  H       0.365475      3.116343      2.887626
  H       3.187013     -1.853153      1.307958
  H       1.982968     -2.934317     -0.874447
39
Coordinates from ORCA-job reaction4-IEIP_ts_guess_scan_12-13_orca E -1288.405979737988
  Ir      0.608864     -0.737375      0.413271
  C       0.128791     -2.849657      0.358877
  C      -0.100339     -2.400346      1.707530
  C       2.134205     -2.073823      1.201721
  C       1.500403     -2.671557      0.061932
  C       1.135028     -1.938842      2.208332
  N      -1.078516      0.105827     -0.510758
  C      -2.354024      0.284150      0.197834
  C      -3.151643      1.493378     -0.269929
  H      -3.987588      1.648639      0.410248
  H      -3.579519      1.360590     -1.264486
  H      -2.551811      2.403793     -0.264868
  C      -3.173550     -0.997282      0.095344
  H      -2.079426      0.443716      1.241820
  H      -4.083113     -0.906399      0.687857
  H      -3.465724     -1.194406     -0.936868
  H      -2.626695     -1.863461      0.464299
  C      -0.923105      0.484704     -1.729218
  C       0.395252      0.324457     -2.262260
  H      -1.732346      0.926359     -2.301413
  C       1.410827      0.013498     -1.359650
  C       2.632705     -0.197982     -2.068545
  S       0.912524      0.389583     -3.879464
  C       2.505525     -0.026876     -3.415281
  H       1.657189      1.190829     -0.630293
  H       3.579562     -0.414108     -1.594820
  H       3.278846     -0.104341     -4.164423
  H      -0.604570     -3.289274     -0.301271
  H      -1.028916     -2.448171      2.255169
  H       1.286634     -1.489565      3.179700
  O       1.779602      2.294021      0.073503
  O       0.585894      1.048058      1.483228
  C       1.167828      2.120807      1.158870
  C       1.149929      3.251562      2.140756
  H       1.021576      4.202916      1.629065
  H       2.112589      3.289986      2.653530
  H       0.370329      3.118247      2.884894
  H       3.184669     -1.855101      1.314585
  H       1.981485     -2.937363     -0.868079
39
Coordinates from ORCA-job reaction4-IEIP_ts_guess_scan_12-13_orca E -1288.406036188436
  Ir      0.608197     -0.740389      0.413963
  C       0.125436     -2.851301      0.365512
  C      -0.104582     -2.402497      1.714134
  C       2.130436     -2.076731      1.209655
  C       1.498009     -2.675346      0.069999
  C       1.129826     -1.941002      2.215386
  N      -1.078007      0.104392     -0.511474
  C      -2.354557      0.280481      0.196276
  C      -3.153628      1.489923     -0.268611
  H      -3.989972      1.642439      0.411635
  H      -3.581145      1.359069     -1.263568
  H      -2.554882      2.401057     -0.261111
  C      -3.173312     -1.001300      0.091298
  H      -2.080833      0.438092      1.240863
  H      -4.083048     -0.912183      0.683787
  H      -3.465003     -1.196675     -0.941396
  H      -2.625850     -1.867663      0.458751
  C      -0.922565      0.487305     -1.727881
  C       0.393885      0.327162     -2.263223
  H      -1.732524      0.930674     -2.297721
  C       1.407559      0.003622     -1.363021
  C       2.631020     -0.199592     -2.071354
  S       0.913133      0.405618     -3.879273
  C       2.507255     -0.006522     -3.415623
  H       1.661186      1.194016     -0.640641
  H       3.576632     -0.422954     -1.598623
  H       3.282798     -0.071434     -4.163706
  H      -0.607409     -3.291176     -0.295057
  H      -1.034147     -2.448349      2.260226
  H       1.280716     -1.490665      3.186376
  O       1.782048      2.294970      0.066918
  O       0.590945      1.049350      1.478773
  C       1.171983      2.120608      1.153720
  C       1.157865      3.252936      2.134006
  H       1.029311      4.203910      1.621718
  H       2.121771      3.290917      2.644475
  H       0.379941      3.121217      2.880245
  H       3.181036     -1.859676      1.324368
  H       1.979844     -2.943114     -0.859062
39
Coordinates from ORCA-job reaction4-IEIP_ts_guess_scan_12-13_orca E -1288.406071811471
  Ir      0.607420     -0.743662      0.414503
  C       0.124036     -2.852655      0.368197
  C      -0.109233     -2.403382      1.716274
  C       2.127170     -2.077780      1.216626
  C       1.497814     -2.677531      0.076099
  C       1.123906     -1.941391      2.220339
  N      -1.077436      0.102662     -0.512133
  C      -2.354227      0.277178      0.196087
  C      -3.153841      1.487190     -0.266169
  H      -3.989697      1.637932      0.415027
  H      -3.582131      1.358222     -1.261084
  H      -2.555438      2.398552     -0.257211
  C      -3.172669     -1.004590      0.088732
  H      -2.080649      0.433084      1.240984
  H      -4.082499     -0.916606      0.681206
  H      -3.464109     -1.198223     -0.944372
  H      -2.625154     -1.871538      0.454748
  C      -0.922579      0.489222     -1.726285
  C       0.392813      0.329203     -2.261660
  H      -1.732402      0.935189     -2.294461
  C       1.406099     -0.002069     -1.363798
  C       2.630199     -0.199064     -2.072453
  S       0.914342      0.423602     -3.876255
  C       2.507255      0.005495     -3.415326
  H       1.662817      1.194221     -0.648574
  H       3.574983     -0.429098     -1.601355
  H       3.283152     -0.053699     -4.163538
  H      -0.607082     -3.293087     -0.293930
  H      -1.040596     -2.447697      2.259408
  H       1.272538     -1.489919      3.191125
  O       1.782260      2.294349      0.060509
  O       0.594861      1.049506      1.474015
  C       1.174530      2.120207      1.148166
  C       1.163438      3.253642      2.127752
  H       1.033970      4.204288      1.615158
  H       2.128647      3.291510      2.635763
  H       0.387463      3.122958      2.876239
  H       3.177530     -1.860944      1.333969
  H       1.981872     -2.946087     -0.851583
39
Coordinates from ORCA-job reaction4-IEIP_ts_guess_scan_12-13_orca E -1288.406096091018
  Ir      0.606821     -0.747274      0.414971
  C       0.124241     -2.854751      0.369058
  C      -0.113772     -2.404358      1.716246
  C       2.124316     -2.078271      1.223797
  C       1.499364     -2.679705      0.081881
  C       1.117415     -1.941343      2.224466
  N      -1.077662      0.100842     -0.512088
  C      -2.354428      0.273984      0.197064
  C      -3.153670      1.485516     -0.261730
  H      -3.988846      1.634658      0.420671
  H      -3.582919      1.359532     -1.256624
  H      -2.554957      2.396654     -0.250691
  C      -3.173310     -1.007142      0.085970
  H      -2.080741      0.427238      1.242302
  H      -4.083322     -0.920238      0.678335
  H      -3.464489     -1.197859     -0.947744
  H      -2.626500     -1.875452      0.449739
  C      -0.923042      0.490848     -1.724645
  C       0.392245      0.330449     -2.259331
  H      -1.732076      0.939369     -2.291913
  C       1.405702     -0.005795     -1.363287
  C       2.630046     -0.197754     -2.072729
  S       0.915189      0.436937     -3.872850
  C       2.507351      0.015075     -3.414547
  H       1.663450      1.193688     -0.656273
  H       3.574463     -0.432338     -1.603179
  H       3.283335     -0.039509     -4.163025
  H      -0.604202     -3.296453     -0.295170
  H      -1.047346     -2.447731      2.255655
  H       1.262603     -1.488782      3.195236
  O       1.781612      2.294058      0.052648
  O       0.599074      1.049377      1.469127
  C       1.177187      2.120198      1.141668
  C       1.168403      3.254230      2.120935
  H       1.036931      4.204527      1.608224
  H       2.135108      3.292605      2.626033
  H       0.394805      3.123742      2.871922
  H       3.174188     -1.860864      1.344530
  H       1.986800     -2.948716     -0.843910
39
Coordinates from ORCA-job reaction4-IEIP_ts_guess_scan_12-13_orca E -1288.406108965805
  Ir      0.606566     -0.749354      0.415024
  C       0.125478     -2.856494      0.368516
  C      -0.116973     -2.405323      1.714905
  C       2.122352     -2.077957      1.229256
  C       1.501618     -2.680971      0.086002
  C       1.112044     -1.941159      2.226932
  N      -1.078131      0.099838     -0.511372
  C      -2.354688      0.272102      0.198372
  C      -3.153307      1.484971     -0.257948
  H      -3.988254      1.633097      0.424980
  H      -3.582789      1.361373     -1.253040
  H      -2.554163      2.395798     -0.245034
  C      -3.173953     -1.008475      0.084293
  H      -2.080778      0.423210      1.243845
  H      -4.084061     -0.922534      0.676673
  H      -3.465038     -1.196761     -0.949884
  H      -2.627616     -1.877919      0.446086
  C      -0.923601      0.491776     -1.723447
  C       0.392034      0.331313     -2.257970
  H      -1.732063      0.941789     -2.290303
  C       1.405686     -0.007073     -1.362792
  C       2.629896     -0.196949     -2.073153
  S       0.915060      0.443124     -3.871103
  C       2.507067      0.019748     -3.414412
  H       1.663657      1.194254     -0.661822
  H       3.574333     -0.433331     -1.604536
  H       3.282955     -0.032673     -4.163140
  H      -0.600325     -3.299717     -0.297574
  H      -1.052361     -2.448737      2.251176
  H       1.253811     -1.488060      3.197938
  O       1.781079      2.294962      0.046700
  O       0.601994      1.049407      1.465684
  C       1.179006      2.120653      1.136893
  C       1.171527      3.254305      2.116611
  H       1.038323      4.204648      1.604412
  H       2.139313      3.293015      2.619612
  H       0.399649      3.123157      2.869231
  H       3.171692     -1.859716      1.353144
  H       1.992334     -2.950147     -0.838014
39
Coordinates from ORCA-job reaction4-IEIP_ts_guess_scan_12-13_orca E -1288.406119463686
  Ir      0.606739     -0.750756      0.414873
  C       0.128348     -2.858382      0.366901
  C      -0.119901     -2.406811      1.712359
  C       2.120726     -2.076721      1.235527
  C       1.505578     -2.681623      0.090439
  C       1.105995     -1.940932      2.229278
  N      -1.078770      0.099253     -0.510232
  C      -2.355113      0.270652      0.199903
  C      -3.152811      1.485171     -0.253620
  H      -3.987835      1.632206      0.429469
  H      -3.582029      1.364429     -1.249166
  H      -2.553032      2.395536     -0.238196
  C      -3.174986     -1.009206      0.082367
  H      -2.080979      0.419121      1.245685
  H      -4.085057     -0.924517      0.675005
  H      -3.466213     -1.194448     -0.952313
  H      -2.629068     -1.880011      0.441522
  C      -0.924414      0.492464     -1.722230
  C       0.391597      0.332107     -2.257146
  H      -1.732517      0.943446     -2.288776
  C       1.405594     -0.007228     -1.362542
  C       2.629330     -0.196639     -2.074225
  S       0.913638      0.445908     -3.870324
  C       2.505885      0.021735     -3.415125
  H       1.663626      1.196086     -0.667332
  H       3.574064     -0.433547     -1.606437
  H       3.281414     -0.029866     -4.164273
  H      -0.593900     -3.303788     -0.301567
  H      -1.057434     -2.451146      2.244813
  H       1.243125     -1.487580      3.200822
  O       1.780555      2.296930      0.041059
  O       0.604969      1.049693      1.462538
  C       1.180873      2.121499      1.132530
  C       1.174467      3.254177      2.113256
  H       1.039478      4.204877      1.602146
  H       2.143289      3.293116      2.614252
  H       0.404231      3.121749      2.867300
  H       3.169297     -1.857152      1.363537
  H       2.000607     -2.950610     -0.831338
39
Coordinates from ORCA-job reaction4-IEIP_ts_guess_scan_12-13_orca E -1288.406125123722
  Ir      0.607216     -0.750995      0.414577
  C       0.132114     -2.859552      0.364483
  C      -0.122048     -2.408370      1.709150
  C       2.119687     -2.074587      1.241244
  C       1.510274     -2.681016      0.094113
  C       1.100522     -1.940658      2.231084
  N      -1.079192      0.099254     -0.509214
  C      -2.355403      0.269892      0.201109
  C      -3.152296      1.485880     -0.249856
  H      -3.987572      1.631880      0.433144
  H      -3.581029      1.367724     -1.245914
  H      -2.551931      2.395812     -0.232021
  C      -3.175809     -1.009357      0.080590
  H      -2.081123      0.415884      1.247203
  H      -4.085586     -0.926049      0.673879
  H      -3.467578     -1.191679     -0.954458
  H      -2.629919     -1.881349      0.436937
  C      -0.925275      0.492696     -1.721367
  C       0.390781      0.332522     -2.257146
  H      -1.733471      0.943815     -2.287666
  C       1.405223     -0.006553     -1.362836
  C       2.628277     -0.197148     -2.075805
  S       0.911164      0.444897     -3.870752
  C       2.503895      0.020499     -3.416626
  H       1.663317      1.198423     -0.671175
  H       3.573418     -0.433603     -1.608576
  H       3.278857     -0.031814     -4.166305
  H      -0.586477     -3.307070     -0.306483
  H      -1.061649     -2.454216      2.237829
  H       1.232817     -1.487407      3.203341
  O       1.780294      2.298970      0.037669
  O       0.607089      1.050220      1.460618
  C       1.182276      2.122379      1.130023
  C       1.176779      3.254043      2.111836
  H       1.040849      4.205272      1.601930
  H       2.146269      3.292793      2.611569
  H       0.407553      3.120516      2.866694
  H       3.167416     -1.853505      1.373467
  H       2.009642     -2.949252     -0.825549
39
Coordinates from ORCA-job reaction4-IEIP_ts_guess_scan_12-13_orca E -1288.406128591799
  Ir      0.607970     -0.750496      0.414240
  C       0.137678     -2.860277      0.360826
  C      -0.124061     -2.410468      1.704671
  C       2.118920     -2.071041      1.248116
  C       1.516899     -2.678921      0.098139
  C       1.094198     -1.940328      2.233127
  N      -1.079553      0.099461     -0.508248
  C      -2.355663      0.269251      0.202298
  C      -3.151444      1.487144     -0.245391
  H      -3.987014      1.631897      0.437501
  H      -3.579644      1.372275     -1.242058
  H      -2.550229      2.396445     -0.224585
  C      -3.176918     -1.009147      0.078160
  H      -2.081302      0.412052      1.248814
  H      -4.086033     -0.927619      0.672699
  H      -3.469837     -1.187612     -0.957243
  H      -2.630901     -1.882669      0.430588
  C      -0.926514      0.492437     -1.720650
  C       0.389228      0.332435     -2.257736
  H      -1.735229      0.943094     -2.286621
  C       1.404343     -0.005580     -1.363707
  C       2.626463     -0.198493     -2.078072
  S       0.907341      0.441140     -3.872080
  C       2.500737      0.016743     -3.418999
  H       1.662508      1.201026     -0.674402
  H       3.572120     -0.433967     -1.611358
  H       3.274851     -0.037349     -4.169421
  H      -0.576222     -3.310206     -0.313499
  H      -1.066265     -2.458598      2.228503
  H       1.220238     -1.487462      3.206391
  O       1.780157      2.300885      0.035398
  O       0.608925      1.051019      1.459391
  C       1.183634      2.123296      1.128511
  C       1.179372      3.254104      2.111305
  H       1.043215      4.205938      1.602582
  H       2.149365      3.292208      2.610129
  H       0.410829      3.119901      2.866733
  H       3.165502     -1.847840      1.385731
  H       2.021709     -2.945486     -0.819042
39
Coordinates from ORCA-job reaction4-IEIP_ts_guess_scan_12-13_orca E -1288.406130167679
  Ir      0.608696     -0.749554      0.414005
  C       0.144174     -2.860399      0.356386
  C      -0.125918     -2.412876      1.699504
  C       2.118313     -2.066560      1.255455
  C       1.524507     -2.675518      0.102101
  C       1.087593     -1.940058      2.235306
  N      -1.079836      0.099518     -0.507537
  C      -2.355817      0.268503      0.203433
  C      -3.150176      1.488694     -0.240409
  H      -3.985842      1.632178      0.442623
  H      -3.578163      1.377628     -1.237599
  H      -2.547813      2.397149     -0.216473
  C      -3.178258     -1.008785      0.075308
  H      -2.081386      0.407641      1.250417
  H      -4.086357     -0.929203      0.671644
  H      -3.472926     -1.182723     -0.960379
  H      -2.632066     -1.884128      0.422989
  C      -0.928054      0.491520     -1.720236
  C       0.387099      0.331587     -2.258712
  H      -1.737600      0.941288     -2.285793
  C       1.403000     -0.005020     -1.365027
  C       2.624208     -0.200351     -2.080505
  S       0.903079      0.436089     -3.873861
  C       2.497086      0.011879     -3.421653
  H       1.661161      1.202780     -0.676612
  H       3.570338     -0.434801     -1.614216
  H       3.270288     -0.044247     -4.172861
  H      -0.564556     -3.312566     -0.321862
  H      -1.071024     -2.463599      2.217850
  H       1.206715     -1.487800      3.209718
  O       1.780146      2.301854      0.034180
  O       0.610172      1.051946      1.458968
  C       1.184784      2.124001      1.127888
  C       1.182137      3.254552      2.111048
  H       1.046636      4.206793      1.602933
  H       2.152410      3.291594      2.609421
  H       0.413860      3.120644      2.866815
  H       3.163563     -1.840897      1.399044
  H       2.035198     -2.939557     -0.812559
39
Coordinates from ORCA-job reaction4-IEIP_ts_guess_scan_12-13_orca E -1288.406131271673
  Ir      0.609232     -0.748563      0.413995
  C       0.151073     -2.860123      0.351604
  C      -0.127677     -2.415554      1.694107
  C       2.117743     -2.061654      1.263097
  C       1.532552     -2.671299      0.106034
  C       1.080905     -1.939985      2.237686
  N      -1.080165      0.099076     -0.507008
  C      -2.355947      0.267404      0.204633
  C      -3.148392      1.490391     -0.234829
  H      -3.983869      1.632739      0.448674
  H      -3.576576      1.383700     -1.232415
  H      -2.544462      2.397700     -0.207664
  C      -3.180055     -1.008393      0.072081
  H      -2.081437      0.402432      1.252110
  H      -4.086883     -0.930740      0.670591
  H      -3.476929     -1.177167     -0.963837
  H      -2.633892     -1.885922      0.414346
  C      -0.929895      0.489822     -1.720088
  C       0.384571      0.329842     -2.259813
  H      -1.740438      0.938466     -2.285171
  C       1.401307     -0.005419     -1.366612
  C       2.621829     -0.202286     -2.082774
  S       0.899010      0.431190     -3.875654
  C       2.493471      0.007429     -3.424152
  H       1.659311      1.203041     -0.677970
  H       3.568345     -0.435912     -1.616849
  H       3.265873     -0.050145     -4.176075
  H      -0.552276     -3.314215     -0.330929
  H      -1.075860     -2.468859      2.206559
  H       1.192854     -1.488509      3.213300
  O       1.780232      2.301589      0.033309
  O       0.610937      1.052900      1.459131
  C       1.185797      2.124419      1.127573
  C       1.185095      3.255462      2.110262
  H       1.050961      4.207746      1.601911
  H       2.155465      3.291188      2.608545
  H       0.416760      3.122948      2.866245
  H       3.161548     -1.833379      1.412952
  H       2.049253     -2.932171     -0.806161
39
Coordinates from ORCA-job reaction4-IEIP_ts_guess_scan_12-13_orca E -1288.406132770633
  Ir      0.609430     -0.747951      0.414222
  C       0.156692     -2.859782      0.347660
  C      -0.129163     -2.417932      1.689724
  C       2.117163     -2.057687      1.269572
  C       1.539141     -2.667616      0.109326
  C       1.075349     -1.940178      2.239823
  N      -1.080535      0.098094     -0.506576
  C      -2.356055      0.266085      0.205822
  C      -3.146395      1.491870     -0.229595
  H      -3.981445      1.633510      0.454593
  H      -3.575099      1.389312     -1.227395
  H      -2.540734      2.397922     -0.199694
  C      -3.182014     -1.008091      0.069224
  H      -2.081427      0.397370      1.253708
  H      -4.087673     -0.931914      0.669697
  H      -3.480961     -1.172115     -0.966861
  H      -2.636198     -1.887767      0.406602
  C      -0.931619      0.487627     -1.720124
  C       0.382334      0.327533     -2.260650
  H      -1.743022      0.935216     -2.284833
  C       1.399778     -0.006871     -1.368011
  C       2.620058     -0.203548     -2.084339
  S       0.896220      0.428202     -3.876871
  C       2.490914      0.005233     -3.425840
  H       1.657443      1.201626     -0.678531
  H       3.566833     -0.436703     -1.618707
  H       3.262868     -0.052473     -4.178219
  H      -0.542198     -3.315169     -0.338567
  H      -1.079960     -2.473133      2.197128
  H       1.181434     -1.489490      3.216442
  O       1.780382      2.300278      0.032241
  O       0.611283      1.053657      1.459486
  C       1.186571      2.124532      1.127018
  C       1.187591      3.256603      2.108567
  H       1.055024      4.208551      1.599224
  H       2.157899      3.291168      2.607051
  H       0.418978      3.126111      2.864645
  H       3.159740     -1.827298      1.424682
  H       2.060744     -2.925591     -0.800904
39
Coordinates from ORCA-job reaction4-IEIP_ts_guess_scan_12-13_orca E -1288.406134929851
  Ir      0.609407     -0.747906      0.414559
  C       0.159878     -2.859772      0.345470
  C      -0.130190     -2.419490      1.687258
  C       2.116675     -2.055667      1.273702
  C       1.542948     -2.665695      0.111537
  C       1.071900     -1.940523      2.241285
  N      -1.080858      0.096974     -0.506123
  C      -2.356145      0.264944      0.206822
  C      -3.144701      1.492873     -0.225811
  H      -3.979339      1.634311      0.458943
  H      -3.573871      1.393306     -1.223713
  H      -2.537587      2.397880     -0.194074
  C      -3.183649     -1.007893      0.067364
  H      -2.081396      0.393642      1.254966
  H      -4.088618     -0.932470      0.668986
  H      -3.483874     -1.168655     -0.968860
  H      -2.638415     -1.889176      0.401561
  C      -0.932771      0.485637     -1.720133
  C       0.380978      0.325451     -2.260969
  H      -1.744665      0.932490     -2.284708
  C       1.398894     -0.008697     -1.368832
  C       2.619302     -0.203768     -2.085066
  S       0.895022      0.427680     -3.877249
  C       2.489816      0.005692     -3.426528
  H       1.656183      1.199479     -0.678664
  H       3.566245     -0.436724     -1.619692
  H       3.261696     -0.050991     -4.179067
  H      -0.536322     -3.315824     -0.343035
  H      -1.082614     -2.475560      2.191531
  H       1.174560     -1.490427      3.218534
  O       1.780530      2.298823      0.030793
  O       0.611484      1.054068      1.459567
  C       1.187072      2.124495      1.125981
  C       1.189008      3.257542      2.106373
  H       1.057547      4.209031      1.595911
  H       2.159173      3.291478      2.605174
  H       0.420075      3.128716      2.862421
  H       3.158517     -1.824126      1.432019
  H       2.067475     -2.921960     -0.797494
39
Coordinates from ORCA-job reaction4-IEIP_ts_guess_scan_12-13_orca E -1288.406136929092
  Ir      0.609402     -0.748177      0.414798
  C       0.160943     -2.860106      0.344837
  C      -0.130826     -2.420152      1.686420
  C       2.116326     -2.055304      1.275621
  C       1.544298     -2.665476      0.112763
  C       1.070308     -1.940778      2.242011
  N      -1.081004      0.096279     -0.505672
  C      -2.356167      0.264302      0.207475
  C      -3.143716      1.493365     -0.223819
  H      -3.978173      1.634821      0.461164
  H      -3.573030      1.395332     -1.221807
  H      -2.535789      2.397787     -0.191114
  C      -3.184507     -1.007801      0.066550
  H      -2.081341      0.391725      1.255741
  H      -4.089305     -0.932624      0.668470
  H      -3.485099     -1.167042     -0.969800
  H      -2.639751     -1.889899      0.399425
  C      -0.933220      0.484517     -1.719987
  C       0.380509      0.324330     -2.260907
  H      -1.745269      0.931009     -2.284609
  C       1.398660     -0.009956     -1.369104
  C       2.619241     -0.203399     -2.085348
  S       0.894742      0.428549     -3.877113
  C       2.489623      0.007273     -3.426673
  H       1.655816      1.198015     -0.678838
  H       3.566314     -0.436298     -1.620216
  H       3.261590     -0.048250     -4.179212
  H      -0.534145     -3.316480     -0.344569
  H      -1.083939     -2.476364      2.189387
  H       1.171654     -1.490988      3.219535
  O       1.780681      2.298100      0.029377
  O       0.611781      1.054210      1.459212
  C       1.187387      2.124504      1.124799
  C       1.189401      3.258008      2.104608
  H       1.058390      4.209242      1.593551
  H       2.159426      3.291805      2.603694
  H       0.420223      3.129867      2.860515
  H       3.157895     -1.823444      1.435261
  H       2.070040     -2.921311     -0.795687
