39
Coordinates from ORCA-job reaction4-IEIP_ts_guess_scan_5-9_orca E -1288.398209453114
  Ir      0.590735     -0.722094      0.462489
  C       0.039671     -2.807188      0.363883
  C       0.082550     -2.350984      1.729843
  C       2.194349     -2.130384      0.831143
  C       1.320566     -2.648444     -0.197112
  C       1.439360     -1.981927      2.009537
  N      -1.049422      0.149713     -0.519320
  C      -2.325228      0.446850      0.152702
  C      -3.125862      1.550549     -0.520743
  H      -3.954833      1.830149      0.128048
  H      -3.566525      1.239280     -1.469090
  H      -2.527437      2.446619     -0.687365
  C      -3.141072     -0.832893      0.292643
  H      -2.041078      0.788687      1.149264
  H      -4.058933     -0.623696      0.840155
  H      -3.419234     -1.234053     -0.682818
  H      -2.603776     -1.602958      0.844052
  C      -0.860822      0.376074     -1.762299
  C       0.483941      0.182093     -2.241725
  H      -1.653527      0.732257     -2.413894
  C       1.570342      0.398754     -1.401835
  C       2.781460      0.034595     -2.055724
  S       0.932087     -0.404597     -3.778133
  C       2.587876     -0.406735     -3.328947
  H       1.519033      1.316575     -0.593254
  H       3.761738      0.150024     -1.616382
  H       3.334900     -0.713176     -4.045679
  H      -0.834223     -3.175778     -0.153868
  H      -0.726342     -2.381296      2.444737
  H       1.799746     -1.580047      2.945689
  O       1.400493      2.419191      0.213593
  O       0.538872      0.941731      1.643649
  C       0.958904      2.114071      1.325274
  C       0.917012      3.129045      2.431146
  H       0.887241      4.137941      2.028756
  H       1.824613      3.036278      3.030949
  H       0.071285      2.965143      3.095296
  H       3.244807     -1.907640      0.718286
  H       1.606104     -2.882539     -1.212208
39
Coordinates from ORCA-job reaction4-IEIP_ts_guess_scan_5-9_orca E -1288.394674117082
  Ir      0.596683     -0.698485      0.449657
  C       0.075812     -2.790657      0.309354
  C       0.101730     -2.361221      1.684007
  C       2.216722     -2.092018      0.806247
  C       1.358506     -2.603095     -0.238313
  C       1.450248     -1.976591      1.981049
  N      -1.057054      0.165302     -0.523108
  C      -2.327394      0.470809      0.154109
  C      -3.135750      1.560108     -0.533298
  H      -3.960987      1.849209      0.116069
  H      -3.581868      1.230500     -1.472875
  H      -2.540925      2.454570     -0.720269
  C      -3.138065     -0.808637      0.323197
  H      -2.035897      0.830884      1.142093
  H      -4.051799     -0.592738      0.874963
  H      -3.423342     -1.227408     -0.642749
  H      -2.593401     -1.567393      0.883076
  C      -0.878960      0.363274     -1.773052
  C       0.464822      0.154690     -2.247916
  H      -1.676440      0.695993     -2.431145
  C       1.547286      0.436186     -1.421308
  C       2.759358      0.021166     -2.043948
  S       0.916381     -0.537797     -3.737975
  C       2.569451     -0.516371     -3.280019
  H       1.501192      1.449772     -0.718805
  H       3.739091      0.174344     -1.615146
  H       3.318825     -0.874552     -3.969680
  H      -0.788531     -3.162178     -0.222130
  H      -0.711796     -2.417881      2.391902
  H       1.797376     -1.587460      2.927521
  O       1.490950      2.378341      0.290389
  O       0.506040      0.936881      1.664214
  C       0.974326      2.095967      1.376433
  C       0.898138      3.115011      2.476517
  H       0.922252      4.123297      2.072087
  H       1.765849      2.996858      3.128578
  H       0.010391      2.978182      3.089879
  H       3.264866     -1.853096      0.706263
  H       1.655282     -2.814574     -1.255128
39
Coordinates from ORCA-job reaction4-IEIP_ts_guess_scan_5-9_orca E -1288.398325066822
  Ir      0.592637     -0.718342      0.466079
  C       0.053091     -2.807819      0.355434
  C       0.085312     -2.360569      1.724259
  C       2.201076     -2.120659      0.838523
  C       1.336535     -2.638434     -0.197453
  C       1.437542     -1.983499      2.013267
  N      -1.048970      0.151154     -0.516964
  C      -2.322562      0.452827      0.155325
  C      -3.120867      1.555299     -0.522788
  H      -3.949790      1.838997      0.124260
  H      -3.561147      1.240904     -1.470317
  H      -2.520722      2.449623     -0.692663
  C      -3.139800     -0.825388      0.300207
  H      -2.036580      0.797454      1.150380
  H      -4.056458     -0.613520      0.848652
  H      -3.420030     -1.228915     -0.673679
  H      -2.602179     -1.594471      0.852793
  C      -0.862215      0.377779     -1.761883
  C       0.482260      0.184738     -2.247769
  H      -1.655997      0.738246     -2.409760
  C       1.572401      0.387377     -1.407175
  C       2.778411      0.015179     -2.068237
  S       0.921345     -0.404339     -3.785477
  C       2.578309     -0.420392     -3.341674
  H       1.541548      1.325752     -0.606322
  H       3.761159      0.122595     -1.632447
  H       3.320957     -0.729736     -4.061603
  H      -0.815484     -3.179024     -0.169350
  H      -0.727125     -2.400966      2.434483
  H       1.789866     -1.584833      2.953831
  O       1.393980      2.406788      0.224581
  O       0.521939      0.940214      1.654601
  C       0.949556      2.108762      1.338028
  C       0.903143      3.129571      2.438025
  H       0.876942      4.136525      2.030442
  H       1.807302      3.038631      3.043221
  H       0.053531      2.970008      3.098110
  H       3.251046     -1.892142      0.733686
  H       1.629408     -2.866184     -1.211885
39
Coordinates from ORCA-job reaction4-IEIP_ts_guess_scan_5-9_orca E -1288.396214583128
  Ir      0.579505     -0.727273      0.466673
  C       0.017616     -2.813202      0.409032
  C       0.058658     -2.333614      1.766281
  C       2.173984     -2.136766      0.869340
  C       1.300886     -2.671131     -0.150854
  C       1.415266     -1.963274      2.042251
  N      -1.063762      0.129595     -0.532938
  C      -2.341791      0.422404      0.136033
  C      -3.149256      1.516972     -0.544207
  H      -3.981368      1.794044      0.101650
  H      -3.585951      1.197586     -1.491688
  H      -2.556975      2.416448     -0.714499
  C      -3.148280     -0.862571      0.281887
  H      -2.060755      0.770878      1.131081
  H      -4.067212     -0.657992      0.829348
  H      -3.424144     -1.269692     -0.691741
  H      -2.604302     -1.626263      0.835744
  C      -0.879755      0.355264     -1.778347
  C       0.467447      0.191528     -2.263195
  H      -1.676633      0.711997     -2.424277
  C       1.546321      0.385765     -1.408973
  C       2.766755      0.087853     -2.080593
  S       0.928074     -0.320659     -3.821582
  C       2.584466     -0.295566     -3.373853
  H       1.471872      1.274285     -0.559454
  H       3.743922      0.206435     -1.635134
  H       3.338900     -0.546318     -4.104282
  H      -0.856379     -3.187843     -0.104232
  H      -0.751997     -2.348590      2.479529
  H       1.774356     -1.545512      2.971924
  O       1.642109      2.350294      0.273637
  O       0.528968      0.962822      1.621064
  C       1.059320      2.097225      1.334055
  C       0.983393      3.130419      2.420398
  H       1.070564      4.132109      2.008373
  H       1.816333      2.980335      3.110154
  H       0.064984      3.040264      2.996130
  H       3.226033     -1.922133      0.756168
  H       1.588203     -2.926933     -1.160163
39
Coordinates from ORCA-job reaction4-IEIP_ts_guess_scan_5-9_orca E -1288.398406330511
  Ir      0.586683     -0.716497      0.467510
  C       0.038307     -2.805104      0.379996
  C       0.071828     -2.344254      1.743935
  C       2.188737     -2.121314      0.856362
  C       1.322582     -2.646767     -0.174209
  C       1.424965     -1.968645      2.029143
  N      -1.053267      0.147941     -0.520634
  C      -2.332870      0.434297      0.147867
  C      -3.138024      1.535801     -0.523843
  H      -3.971895      1.806812      0.122306
  H      -3.572074      1.225876     -1.475684
  H      -2.545012      2.436718     -0.683634
  C      -3.140469     -0.851618      0.278797
  H      -2.054305      0.772795      1.147094
  H      -4.060728     -0.652063      0.825890
  H      -3.414006     -1.248847     -0.699563
  H      -2.598335     -1.621069      0.826388
  C      -0.863525      0.386914     -1.763039
  C       0.480134      0.200548     -2.252553
  H      -1.658252      0.748785     -2.408753
  C       1.571244      0.380052     -1.408617
  C       2.775834      0.021544     -2.079245
  S       0.916881     -0.346943     -3.805914
  C       2.573781     -0.381555     -3.363049
  H       1.548112      1.306097     -0.591168
  H       3.759117      0.115559     -1.641505
  H       3.315202     -0.674388     -4.091049
  H      -0.831588     -3.178304     -0.141170
  H      -0.740892     -2.374405      2.454309
  H       1.778408     -1.561280      2.965566
  O       1.481586      2.394758      0.240221
  O       0.519452      0.955988      1.642112
  C       0.988840      2.111351      1.337488
  C       0.938633      3.134817      2.434503
  H       0.955193      4.141444      2.025654
  H       1.820230      3.018021      3.067879
  H       0.064252      3.001439      3.067462
  H       3.239785     -1.898597      0.749865
  H       1.614829     -2.886720     -1.185976
39
Coordinates from ORCA-job reaction4-IEIP_ts_guess_scan_5-9_orca E -1288.398438906292
  Ir      0.593723     -0.723914      0.467935
  C       0.034664     -2.810198      0.384764
  C       0.066932     -2.347075      1.747696
  C       2.187265     -2.136354      0.864916
  C       1.321079     -2.659543     -0.166660
  C       1.420958     -1.976978      2.035229
  N      -1.047428      0.146805     -0.522254
  C      -2.325613      0.435468      0.148412
  C      -3.129374      1.539844     -0.520180
  H      -3.961586      1.811584      0.127784
  H      -3.565745      1.232433     -1.471768
  H      -2.534723      2.439753     -0.679401
  C      -3.136942     -0.848247      0.278827
  H      -2.044899      0.772037      1.147772
  H      -4.055988     -0.646625      0.827240
  H      -3.412842     -1.243534     -0.699656
  H      -2.596573     -1.619878      0.824828
  C      -0.861108      0.384469     -1.765614
  C       0.481050      0.200139     -2.256129
  H      -1.657053      0.746586     -2.409708
  C       1.568707      0.379132     -1.409385
  C       2.775832      0.028614     -2.079418
  S       0.920444     -0.345471     -3.809120
  C       2.577482     -0.367621     -3.366235
  H       1.543355      1.316190     -0.601132
  H       3.758131      0.126870     -1.640384
  H       3.321436     -0.651790     -4.095045
  H      -0.835636     -3.180245     -0.137903
  H      -0.747693     -2.371958      2.456088
  H       1.773939     -1.569213      2.971651
  O       1.436621      2.409051      0.220499
  O       0.530697      0.950360      1.641697
  C       0.973215      2.113657      1.327964
  C       0.934789      3.133450      2.428673
  H       0.924499      4.141322      2.022685
  H       1.834135      3.029236      3.038842
  H       0.079177      2.984058      3.083340
  H       3.239835     -1.919806      0.760972
  H       1.614605     -2.903415     -1.177079
39
Coordinates from ORCA-job reaction4-IEIP_ts_guess_scan_5-9_orca E -1288.398469374202
  Ir      0.594141     -0.724863      0.469437
  C       0.036204     -2.810991      0.386018
  C       0.064593     -2.347763      1.748802
  C       2.187219     -2.136124      0.871190
  C       1.324058     -2.659926     -0.162369
  C       1.417428     -1.976580      2.039434
  N      -1.045439      0.144118     -0.521156
  C      -2.322875      0.433603      0.150657
  C      -3.124610      1.541209     -0.514997
  H      -3.955843      1.813252      0.134086
  H      -3.562223      1.236874     -1.466993
  H      -2.528112      2.440187     -0.672533
  C      -3.137487     -0.848339      0.278625
  H      -2.041196      0.767547      1.150660
  H      -4.056059     -0.645420      0.827354
  H      -3.414353     -1.241067     -0.700615
  H      -2.599275     -1.622404      0.823175
  C      -0.860255      0.383609     -1.764347
  C       0.481052      0.201048     -2.258161
  H      -1.657136      0.747630     -2.406238
  C       1.569836      0.371694     -1.411311
  C       2.776270      0.025250     -2.084770
  S       0.919505     -0.322974     -3.818582
  C       2.576062     -0.360851     -3.374478
  H       1.546376      1.308021     -0.599911
  H       3.758839      0.114947     -1.644540
  H       3.318744     -0.643308     -4.105257
  H      -0.832470     -3.181585     -0.138926
  H      -0.751928     -2.372586      2.454990
  H       1.767667     -1.568077      2.976569
  O       1.443295      2.402220      0.220405
  O       0.529847      0.948384      1.641254
  C       0.975686      2.109732      1.327251
  C       0.928631      3.134559      2.423017
  H       0.918511      4.140640      2.012615
  H       1.824758      3.034871      3.038654
  H       0.069612      2.986201      3.073465
  H       3.240054     -1.919486      0.770203
  H       1.620245     -2.904059     -1.171933
39
Coordinates from ORCA-job reaction4-IEIP_ts_guess_scan_5-9_orca E -1288.398497154819
  Ir      0.592430     -0.725356      0.473894
  C       0.036769     -2.811496      0.390075
  C       0.057722     -2.347561      1.752556
  C       2.184858     -2.134494      0.885122
  C       1.327479     -2.659921     -0.152186
  C       1.408401     -1.974469      2.049270
  N      -1.043855      0.140318     -0.519129
  C      -2.321843      0.427794      0.152728
  C      -3.121254      1.540379     -0.507598
  H      -3.952513      1.810243      0.142368
  H      -3.558696      1.241859     -1.461481
  H      -2.523149      2.439199     -0.659900
  C      -3.139216     -0.853182      0.272841
  H      -2.041133      0.756079      1.154837
  H      -4.058317     -0.651200      0.821015
  H      -3.415200     -1.240356     -0.708851
  H      -2.603633     -1.631238      0.814290
  C      -0.859343      0.383273     -1.761920
  C       0.480340      0.202028     -2.261019
  H      -1.658006      0.747821     -2.401291
  C       1.571377      0.356553     -1.413635
  C       2.776552      0.020190     -2.094268
  S       0.915833     -0.297232     -3.830088
  C       2.573587     -0.340589     -3.391003
  H       1.551273      1.291566     -0.596898
  H       3.759839      0.099377     -1.653757
  H       3.314634     -0.610890     -4.128018
  H      -0.828770     -3.183312     -0.139195
  H      -0.762453     -2.372073      2.454469
  H       1.753387     -1.564457      2.987717
  O       1.461633      2.388022      0.221981
  O       0.527237      0.949356      1.642614
  C       0.980380      2.106223      1.326213
  C       0.930328      3.138943      2.414585
  H       0.928000      4.142269      1.997457
  H       1.821632      3.039144      3.037211
  H       0.065993      2.999009      3.059842
  H       3.238195     -1.917718      0.789869
  H       1.628873     -2.904914     -1.159978
39
Coordinates from ORCA-job reaction4-IEIP_ts_guess_scan_5-9_orca E -1288.398500433482
  Ir      0.593475     -0.727540      0.476455
  C       0.035134     -2.813032      0.395202
  C       0.051299     -2.346615      1.756880
  C       2.182532     -2.138264      0.897442
  C       1.328428     -2.664703     -0.142099
  C       1.401192     -1.974569      2.057971
  N      -1.042339      0.138620     -0.518850
  C      -2.321510      0.421005      0.153460
  C      -3.120253      1.539036     -0.498789
  H      -3.952040      1.803805      0.152606
  H      -3.556961      1.248080     -1.455308
  H      -2.521897      2.438924     -0.643551
  C      -3.139280     -0.860740      0.261944
  H      -2.042614      0.741278      1.158598
  H      -4.059246     -0.662994      0.810215
  H      -3.413714     -1.239940     -0.723287
  H      -2.604753     -1.643411      0.797838
  C      -0.859278      0.386240     -1.761218
  C       0.478684      0.208492     -2.264165
  H      -1.659981      0.750596     -2.398087
  C       1.569985      0.349710     -1.414998
  C       2.774519      0.017605     -2.097930
  S       0.913984     -0.269613     -3.839739
  C       2.570752     -0.326771     -3.399252
  H       1.552849      1.285775     -0.596472
  H       3.757696      0.086837     -1.655609
  H       3.311322     -0.591026     -4.138905
  H      -0.828638     -3.184848     -0.137006
  H      -0.771768     -2.368285      2.455482
  H       1.742966     -1.562887      2.996891
  O       1.469298      2.386213      0.217697
  O       0.532711      0.952746      1.642532
  C       0.986704      2.107994      1.322628
  C       0.936323      3.145280      2.406558
  H       0.932207      4.146844      1.985285
  H       1.828518      3.049230      3.028469
  H       0.072896      3.006764      3.053325
  H       3.236770     -1.924065      0.806614
  H       1.633397     -2.912584     -1.148089
39
Coordinates from ORCA-job reaction4-IEIP_ts_guess_scan_5-9_orca E -1288.398504351385
  Ir      0.594458     -0.728708      0.477334
  C       0.036931     -2.814378      0.394539
  C       0.048811     -2.347836      1.756327
  C       2.182771     -2.139073      0.903636
  C       1.331894     -2.665776     -0.138495
  C       1.397707     -1.975459      2.061591
  N      -1.041308      0.138075     -0.518432
  C      -2.320209      0.420137      0.154743
  C      -3.117400      1.541511     -0.493807
  H      -3.948559      1.805563      0.158668
  H      -3.554827      1.254151     -1.451065
  H      -2.517571      2.440792     -0.636037
  C      -3.139561     -0.860987      0.258623
  H      -2.041116      0.736675      1.161024
  H      -4.059343     -0.664167      0.807579
  H      -3.414399     -1.236334     -0.727976
  H      -2.605963     -1.646290      0.791544
  C      -0.859605      0.385268     -1.761136
  C       0.477434      0.208114     -2.265052
  H      -1.661282      0.748717     -2.397316
  C       1.568933      0.347355     -1.415843
  C       2.773246      0.017865     -2.099785
  S       0.912138     -0.269699     -3.841023
  C       2.568966     -0.324285     -3.401786
  H       1.552005      1.285080     -0.598221
  H       3.756694      0.087920     -1.658217
  H       3.309525     -0.585335     -4.142593
  H      -0.824895     -3.186694     -0.140429
  H      -0.776426     -2.369595      2.452374
  H       1.736477     -1.563516      3.001490
  O       1.466694      2.386651      0.214232
  O       0.534294      0.952351      1.641870
  C       0.986927      2.107787      1.320327
  C       0.936031      3.146020      2.403223
  H       0.927600      4.147086      1.980804
  H       1.830213      3.053533      3.022779
  H       0.074777      3.005382      3.052386
  H       3.237331     -1.925058      0.816400
  H       1.639975     -2.913654     -1.143542
39
Coordinates from ORCA-job reaction4-IEIP_ts_guess_scan_5-9_orca E -1288.398505246219
  Ir      0.595067     -0.729126      0.478126
  C       0.041705     -2.815882      0.391427
  C       0.044835     -2.349444      1.753539
  C       2.183622     -2.136945      0.913866
  C       1.339602     -2.664883     -0.133314
  C       1.391295     -1.975054      2.066993
  N      -1.040887      0.137148     -0.517493
  C      -2.319499      0.418074      0.156904
  C      -3.113852      1.545125     -0.485447
  H      -3.944254      1.807807      0.168526
  H      -3.551979      1.263964     -1.444191
  H      -2.511437      2.443357     -0.623011
  C      -3.141070     -0.862330      0.252108
  H      -2.040488      0.727925      1.165273
  H      -4.060599     -0.667964      0.802423
  H      -3.416472     -1.230490     -0.737049
  H      -2.608564     -1.652262      0.779235
  C      -0.861278      0.383091     -1.760810
  C       0.474726      0.207127     -2.265836
  H      -1.664497      0.744768     -2.396108
  C       1.566880      0.345425     -1.417278
  C       2.770616      0.017228     -2.101940
  S       0.908785     -0.270321     -3.842422
  C       2.565283     -0.324513     -3.404143
  H       1.550386      1.285017     -0.600933
  H       3.754510      0.087981     -1.661495
  H       3.305562     -0.583953     -4.145824
  H      -0.815938     -3.190123     -0.148843
  H      -0.784469     -2.372718      2.444711
  H       1.723774     -1.562601      3.008921
  O       1.462367      2.388345      0.208843
  O       0.534825      0.953383      1.640041
  C       0.984270      2.109515      1.315679
  C       0.938804      3.147107      2.399360
  H       0.925603      4.148238      1.977175
  H       1.837447      3.056343      3.012683
  H       0.082280      3.004491      3.054250
  H       3.238481     -1.921846      0.833472
  H       1.653926     -2.911816     -1.136679
39
Coordinates from ORCA-job reaction4-IEIP_ts_guess_scan_5-9_orca E -1288.398509672016
  Ir      0.595473     -0.729000      0.478835
  C       0.047478     -2.817204      0.386940
  C       0.040655     -2.351334      1.749483
  C       2.184664     -2.133576      0.924445
  C       1.348574     -2.662887     -0.128432
  C       1.384107     -1.974468      2.072255
  N      -1.040953      0.136416     -0.515459
  C      -2.319407      0.415403      0.160102
  C      -3.110242      1.549080     -0.475031
  H      -3.940188      1.809872      0.180265
  H      -3.548530      1.275392     -1.435828
  H      -2.504831      2.446178     -0.606543
  C      -3.143364     -0.864256      0.244533
  H      -2.040842      0.717123      1.170978
  H      -4.062514     -0.673358      0.796721
  H      -3.419525     -1.223368     -0.747740
  H      -2.611777     -1.659789      0.764197
  C      -0.863332      0.381497     -1.759327
  C       0.471821      0.205866     -2.265951
  H      -1.668074      0.741725     -2.393578
  C       1.565461      0.343034     -1.418927
  C       2.767985      0.014513     -2.105073
  S       0.904002     -0.271763     -3.843327
  C       2.560691     -0.325451     -3.407609
  H       1.550678      1.283076     -0.602836
  H       3.752627      0.084677     -1.666234
  H       3.300004     -0.584164     -4.150534
  H      -0.805380     -3.193746     -0.159261
  H      -0.793120     -2.376915      2.435191
  H       1.709308     -1.561716      3.016608
  O       1.465406      2.387435      0.205827
  O       0.535691      0.955377      1.638509
  C       0.987250      2.110452      1.312981
  C       0.940393      3.150070      2.394701
  H       0.923385      4.150260      1.970357
  H       1.840575      3.063541      3.006369
  H       0.085534      3.006160      3.051444
  H       3.239727     -1.916857      0.851698
  H       1.669960     -2.908105     -1.130011
39
Coordinates from ORCA-job reaction4-IEIP_ts_guess_scan_5-9_orca E -1288.398514736170
  Ir      0.596781     -0.728529      0.479851
  C       0.058360     -2.819250      0.378706
  C       0.033340     -2.354660      1.741780
  C       2.186603     -2.127103      0.943384
  C       1.365205     -2.658978     -0.119629
  C       1.370906     -1.973121      2.081450
  N      -1.041147      0.135117     -0.511889
  C      -2.319262      0.410942      0.165648
  C      -3.104105      1.555646     -0.457246
  H      -3.933453      1.813249      0.200058
  H      -3.542436      1.294633     -1.421487
  H      -2.493689      2.450778     -0.578387
  C      -3.147530     -0.867021      0.232390
  H      -2.041242      0.699039      1.180511
  H      -4.065354     -0.682054      0.788790
  H      -3.426137     -1.210286     -0.764806
  H      -2.617034     -1.672136      0.738398
  C      -0.866799      0.379097     -1.756550
  C       0.467214      0.203430     -2.266327
  H      -1.673754      0.737950     -2.388808
  C       1.563431      0.338915     -1.422196
  C       2.763854      0.010321     -2.111950
  S       0.895375     -0.272244     -3.845682
  C       2.552676     -0.328439     -3.414282
  H       1.551768      1.278608     -0.605749
  H       3.749872      0.079004     -1.676021
  H       3.289897     -0.587675     -4.159110
  H      -0.785824     -3.199813     -0.178075
  H      -0.808448     -2.384618      2.417466
  H       1.682574     -1.559776      3.030137
  O       1.470720      2.384624      0.201081
  O       0.536985      0.958188      1.635897
  C       0.990929      2.111678      1.308388
  C       0.942465      3.154676      2.386910
  H       0.919071      4.153318      1.959130
  H       1.845513      3.075082      2.995286
  H       0.090698      3.008805      3.047155
  H       3.241869     -1.907408      0.884391
  H       1.699474     -2.900799     -1.117871
39
Coordinates from ORCA-job reaction4-IEIP_ts_guess_scan_5-9_orca E -1288.398515975639
  Ir      0.598603     -0.728544      0.480162
  C       0.067761     -2.821137      0.371292
  C       0.026107     -2.357572      1.734489
  C       2.187722     -2.122107      0.960665
  C       1.379912     -2.656429     -0.111282
  C       1.357980     -1.971978      2.089528
  N      -1.040966      0.133627     -0.508838
  C      -2.318629      0.406791      0.170624
  C      -3.098585      1.560791     -0.441373
  H      -3.927615      1.815226      0.217561
  H      -3.536746      1.310932     -1.408598
  H      -2.484238      2.454419     -0.553217
  C      -3.150818     -0.869311      0.222629
  H      -2.040790      0.683294      1.188679
  H      -4.066668     -0.689574      0.783952
  H      -3.432927     -1.198215     -0.778421
  H      -2.620803     -1.682869      0.715602
  C      -0.869413      0.377471     -1.753881
  C       0.463664      0.201429     -2.266843
  H      -1.677917      0.736287     -2.384207
  C       1.561922      0.335781     -1.425320
  C       2.760530      0.006611     -2.118380
  S       0.887695     -0.271405     -3.848069
  C       2.546034     -0.330324     -3.420564
  H       1.553338      1.275070     -0.608564
  H       3.747650      0.073515     -1.684681
  H       3.281345     -0.589996     -4.167110
  H      -0.768623     -3.204916     -0.194954
  H      -0.822981     -2.391013      2.400828
  H       1.657086     -1.557804      3.041930
  O       1.475110      2.382683      0.196351
  O       0.539429      0.960194      1.633205
  C       0.993752      2.112848      1.303751
  C       0.943726      3.158703      2.379465
  H       0.913329      4.155958      1.948822
  H       1.849894      3.086115      2.984065
  H       0.095406      3.010294      3.043505
  H       3.243129     -1.900298      0.914187
  H       1.725966     -2.895359     -1.106251
39
Coordinates from ORCA-job reaction4-IEIP_ts_guess_scan_5-9_orca E -1288.398515745512
  Ir      0.600569     -0.729099      0.480359
  C       0.074549     -2.822746      0.365875
  C       0.020463     -2.360133      1.729044
  C       2.188275     -2.119473      0.973804
  C       1.390729     -2.655496     -0.104746
  C       1.347912     -1.971648      2.095531
  N      -1.040676      0.132330     -0.507006
  C      -2.317858      0.404084      0.173926
  C      -3.094815      1.563947     -0.430909
  H      -3.923863      1.815946      0.228938
  H      -3.532621      1.321507     -1.400161
  H      -2.478282      2.456837     -0.536373
  C      -3.152933     -0.870446      0.216949
  H      -2.039880      0.673433      1.193835
  H      -4.066784     -0.693900      0.782499
  H      -3.438506     -1.189585     -0.786276
  H      -2.623123     -1.689742      0.700625
  C      -0.871013      0.376745     -1.752090
  C       0.461328      0.200212     -2.267617
  H      -1.680279      0.736394     -2.381004
  C       1.560820      0.333383     -1.427699
  C       2.758249      0.004846     -2.123619
  S       0.881945     -0.270400     -3.850084
  C       2.541435     -0.330833     -3.425578
  H       1.554430      1.272602     -0.610717
  H       3.746077      0.070823     -1.691383
  H       3.275334     -0.590183     -4.173596
  H      -0.756129     -3.208432     -0.207411
  H      -0.834093     -2.395795      2.388254
  H       1.637563     -1.556790      3.050586
  O       1.477939      2.381217      0.192985
  O       0.542386      0.960902      1.631800
  C       0.995666      2.113324      1.300566
  C       0.944495      3.161399      2.374024
  H       0.907906      4.157504      1.941162
  H       1.853437      3.094739      2.975131
  H       0.099329      3.010692      3.041516
  H       3.243798     -1.896614      0.936733
  H       1.745589     -2.892362     -1.097136
39
Coordinates from ORCA-job reaction4-IEIP_ts_guess_scan_5-9_orca E -1288.398514992035
  Ir      0.601540     -0.729554      0.480174
  C       0.077075     -2.823388      0.363021
  C       0.017162     -2.361390      1.726186
  C       2.187934     -2.118921      0.979863
  C       1.395239     -2.655580     -0.101826
  C       1.342508     -1.971741      2.098062
  N      -1.040401      0.131700     -0.506550
  C      -2.317236      0.403128      0.175165
  C      -3.093802      1.564521     -0.427286
  H      -3.923026      1.815150      0.232868
  H      -3.531373      1.324482     -1.397236
  H      -2.477171      2.457608     -0.530493
  C      -3.153148     -0.870900      0.216038
  H      -2.038892      0.670702      1.195455
  H      -4.065717     -0.695352      0.783958
  H      -3.440901     -1.186745     -0.787600
  H      -2.623045     -1.692157      0.696075
  C      -0.871408      0.376783     -1.751495
  C       0.460562      0.200043     -2.268185
  H      -1.680712      0.737283     -2.379893
  C       1.560399      0.332595     -1.428768
  C       2.757408      0.004333     -2.125754
  S       0.879702     -0.269578     -3.851053
  C       2.539869     -0.330269     -3.427761
  H       1.554971      1.272145     -0.611893
  H       3.745385      0.069916     -1.693780
  H       3.273192     -0.588969     -4.176550
  H      -0.751052     -3.209533     -0.213625
  H      -0.840030     -2.397686      2.381933
  H       1.627749     -1.556580      3.054326
  O       1.478831      2.381164      0.191285
  O       0.544664      0.960855      1.631269
  C       0.996705      2.113456      1.299076
  C       0.945311      3.162356      2.371661
  H       0.904940      4.157934      1.937907
  H       1.856075      3.098891      2.970348
  H       0.102275      3.010078      3.041463
  H       3.243581     -1.896023      0.947311
  H       1.754211     -2.891564     -1.092956
39
Coordinates from ORCA-job reaction4-IEIP_ts_guess_scan_5-9_orca E -1288.398515430542
  Ir      0.601719     -0.729771      0.480098
  C       0.077681     -2.823592      0.361934
  C       0.016225     -2.362035      1.725210
  C       2.187766     -2.118967      0.981275
  C       1.396376     -2.655668     -0.101350
  C       1.341016     -1.972048      2.098522
  N      -1.040468      0.131586     -0.506731
  C      -2.317116      0.403341      0.175179
  C      -3.094137      1.564200     -0.427674
  H      -3.923520      1.814537      0.232396
  H      -3.531572      1.323821     -1.397603
  H      -2.478015      2.457629     -0.530993
  C      -3.152972     -0.870681      0.217142
  H      -2.038468      0.671753      1.195181
  H      -4.065117     -0.694788      0.785642
  H      -3.441433     -1.186905     -0.786168
  H      -2.622714     -1.691821      0.697169
  C      -0.871463      0.376986     -1.751583
  C       0.460417      0.200200     -2.268427
  H      -1.680585      0.737873     -2.380004
  C       1.560246      0.332476     -1.428957
  C       2.757239      0.004530     -2.126097
  S       0.879378     -0.269436     -3.851260
  C       2.539697     -0.329939     -3.428119
  H       1.554890      1.272230     -0.612153
  H       3.745156      0.070213     -1.693994
  H       3.272889     -0.588310     -4.177148
  H      -0.749804     -3.209692     -0.215664
  H      -0.841678     -2.398450      2.380020
  H       1.625138     -1.556954      3.055152
  O       1.478655      2.381246      0.191021
  O       0.545505      0.960557      1.631455
  C       0.997011      2.113287      1.298985
  C       0.945954      3.162280      2.371494
  H       0.904167      4.157731      1.937576
  H       1.857543      3.099797      2.969030
  H       0.103898      3.009401      3.042385
  H       3.243460     -1.896125      0.949981
  H       1.756403     -2.891303     -1.092181
