39
Generated by autodE on: 2023-08-16. E = -1288.403145 Ha
Ir    0.61406  -0.74503   0.39946
C     0.17468  -2.86163   0.32913
C    -0.12153  -2.43205   1.67357
C     2.12243  -2.04805   1.26695
C     1.55808  -2.66030   0.10222
C     1.07288  -1.94689   2.23322
N    -1.08389   0.09994  -0.50585
C    -2.35425   0.26942   0.21444
C    -3.14107   1.50107  -0.21027
H    -3.97293   1.64189   0.47798
H    -3.57397   1.40680  -1.20709
H    -2.53138   2.40428  -0.17682
C    -3.18530  -1.00120   0.07464
H    -2.07292   0.39333   1.26139
H    -4.08536  -0.92705   0.68372
H    -3.49402  -1.15582  -0.96001
H    -2.63892  -1.88517   0.39978
C    -0.93925   0.49011  -1.71993
C     0.37504   0.32161  -2.25641
H    -1.74917   0.94193  -2.28304
C     1.38200  -0.02311  -1.35050
C     2.60944  -0.22086  -2.06044
S     0.90480   0.42792  -3.86494
C     2.49382  -0.00530  -3.40108
H     1.63700   1.18562  -0.71338
H     3.55132  -0.45796  -1.58684
H     3.27245  -0.06152  -4.14665
H    -0.51557  -3.32224  -0.36229
H    -1.07615  -2.49433   2.17292
H     1.16920  -1.50045   3.21273
O     1.75851   2.31310   0.00585
O     0.62062   1.05304   1.44707
C     1.18119   2.13133   1.10574
C     1.17981   3.26042   2.09186
H     1.06009   4.21525   1.58510
H     2.14445   3.28429   2.60191
H     0.40250   3.13279   2.83966
H     3.16252  -1.81301   1.43157
H     2.08818  -2.91298  -0.80462
