39
Generated by autodE on: 2023-08-14. E = -1288.393866 Ha
Ir    0.57811  -0.74206   0.51842
C     0.03023  -2.82328   0.39523
C     0.02689  -2.36501   1.76201
C     2.16976  -2.15063   0.93942
C     1.33009  -2.66452  -0.11911
C     1.37505  -2.00243   2.09071
N    -1.03462   0.13060  -0.50116
C    -2.32052   0.41932   0.15785
C    -3.10156   1.54724  -0.49915
H    -3.93629   1.82024   0.14508
H    -3.53256   1.26271  -1.46008
H    -2.49139   2.44006  -0.63757
C    -3.14863  -0.85692   0.24972
H    -2.05270   0.73330   1.16800
H    -4.07275  -0.65741   0.79037
H    -3.41590  -1.22732  -0.74089
H    -2.62450  -1.64760   0.78445
C    -0.84637   0.35779  -1.74681
C     0.49034   0.19112  -2.25731
H    -1.65225   0.70106  -2.38966
C     1.60301   0.42217  -1.46042
C     2.79368   0.09174  -2.16369
S     0.89273  -0.35211  -3.82714
C     2.56142  -0.32818  -3.43887
H     1.56298   1.33398  -0.59535
H     3.78795   0.21588  -1.75972
H     3.28852  -0.60613  -4.18696
H    -0.82514  -3.19179  -0.15250
H    -0.80629  -2.39505   2.44862
H     1.70298  -1.60273   3.03969
O     1.45663   2.37511   0.22309
O     0.54048   0.94404   1.66736
C     0.98632   2.09935   1.33437
C     0.94390   3.14256   2.41219
H     0.89507   4.13995   1.98349
H     1.86216   3.07995   2.99958
H     0.10970   2.98429   3.09159
H     3.22342  -1.92817   0.86162
H     1.64940  -2.89193  -1.12573
