39
Generated by autodE on: 2023-08-14. E = -1288.400423 Ha
Ir    0.61682  -0.71564   0.44114
C     0.09241  -2.81602   0.34179
C     0.05525  -2.35549   1.70525
C     2.21074  -2.10308   0.91825
C     1.40176  -2.64708  -0.14750
C     1.38342  -1.95658   2.05127
N    -1.04445   0.14519  -0.51839
C    -2.31142   0.42650   0.17515
C    -3.09555   1.57872  -0.43407
H    -3.91914   1.83554   0.23072
H    -3.54158   1.32587  -1.39696
H    -2.48177   2.47186  -0.55305
C    -3.14477  -0.84809   0.24472
H    -2.01828   0.70697   1.18774
H    -4.04908  -0.66483   0.82322
H    -3.44643  -1.17819  -0.75017
H    -2.60667  -1.66146   0.72924
C    -0.87985   0.38742  -1.76360
C     0.45498   0.18780  -2.26713
H    -1.68204   0.75879  -2.39425
C     1.53956   0.30782  -1.40035
C     2.74763  -0.04188  -2.07348
S     0.89722  -0.31668  -3.82747
C     2.55089  -0.39405  -3.37230
H     1.53251   1.25340  -0.64446
H     3.72743   0.02057  -1.62281
H     3.29337  -0.67323  -4.10446
H    -0.74496  -3.20533  -0.21924
H    -0.79077  -2.39136   2.37518
H     1.68390  -1.53747   3.00108
O     1.41727   2.42592   0.18846
O     0.54477   0.95603   1.61715
C     0.96421   2.12780   1.29635
C     0.90336   3.15048   2.39526
H     0.86766   4.15631   1.98569
H     1.80694   3.07042   3.00271
H     0.05354   2.98348   3.05330
H     3.26588  -1.88082   0.86921
H     1.74464  -2.89041  -1.14245
