39
Coordinates from ORCA-job reaction4-IEIP_ts_guess_scan_13-7_orca E -1288.398736000164
  Ir      0.621463     -0.722677      0.396686
  C       0.158161     -2.842301      0.313917
  C      -0.062133     -2.397203      1.665700
  C       2.166811     -2.055312      1.142483
  C       1.523191     -2.649391      0.004108
  C       1.179163     -1.933500      2.161139
  N      -1.073412      0.125561     -0.516339
  C      -2.340073      0.322954      0.203486
  C      -3.139815      1.524580     -0.279155
  H      -3.966571      1.695773      0.408393
  H      -3.581348      1.372105     -1.264950
  H      -2.537902      2.433365     -0.300067
  C      -3.162979     -0.959001      0.133652
  H      -2.051453      0.500487      1.240587
  H      -4.063999     -0.854919      0.736796
  H      -3.469997     -1.173137     -0.890855
  H      -2.613104     -1.819741      0.510598
  C      -0.927511      0.481448     -1.734603
  C       0.389395      0.294709     -2.251006
  H      -1.731913      0.919597     -2.316291
  C       1.408829      0.046832     -1.324120
  C       2.630099     -0.208448     -2.029182
  S       0.898370      0.239426     -3.865367
  C       2.499246     -0.133224     -3.381210
  H       1.600316      1.122248     -0.633017
  H       3.580309     -0.378442     -1.543586
  H       3.269220     -0.254692     -4.127960
  H      -0.579811     -3.280924     -0.341726
  H      -0.985546     -2.453143      2.221491
  H       1.337673     -1.489270      3.133703
  O       1.719129      2.317979      0.085391
  O       0.578241      1.028584      1.494672
  C       1.132799      2.125671      1.166351
  C       1.086515      3.235844      2.175684
  H       0.973179      4.197826      1.681229
  H       2.034111      3.260579      2.716494
  H       0.287797      3.089300      2.897378
  H       3.216562     -1.827320      1.243583
  H       1.996354     -2.903036     -0.933345
39
Coordinates from ORCA-job reaction4-IEIP_ts_guess_scan_13-7_orca E -1288.398754194714
  Ir      0.620221     -0.715420      0.392103
  C       0.163175     -2.838802      0.311650
  C      -0.057877     -2.396218      1.664153
  C       2.168996     -2.045577      1.140648
  C       1.527667     -2.642035      0.002263
  C       1.180796     -1.927920      2.158978
  N      -1.079309      0.125769     -0.517745
  C      -2.345027      0.323941      0.203673
  C      -3.146868      1.522624     -0.282756
  H      -3.973297      1.695227      0.404818
  H      -3.588890      1.365811     -1.267659
  H      -2.546340      2.432247     -0.307614
  C      -3.166462     -0.959233      0.139912
  H      -2.055376      0.505905      1.239754
  H      -4.066831     -0.854030      0.743845
  H      -3.474626     -1.177725     -0.883338
  H      -2.615026     -1.817851      0.519414
  C      -0.932762      0.477662     -1.741874
  C       0.386478      0.291095     -2.261219
  H      -1.738367      0.912027     -2.324639
  C       1.405473      0.047921     -1.332413
  C       2.627004     -0.211494     -2.036388
  S       0.896672      0.231147     -3.875293
  C       2.496717     -0.142566     -3.388751
  H       1.605109      1.144868     -0.661201
  H       3.577195     -0.379185     -1.549776
  H       3.266951     -0.268673     -4.134361
  H      -0.573254     -3.280085     -0.343974
  H      -0.980733     -2.456095      2.220368
  H       1.337833     -1.483990      3.131924
  O       1.779547      2.287798      0.128280
  O       0.562482      1.034133      1.497173
  C       1.147871      2.119112      1.187519
  C       1.086542      3.236304      2.187864
  H       1.012220      4.197316      1.684120
  H       2.013255      3.244783      2.764213
  H       0.258099      3.110787      2.879258
  H       3.218166     -1.815207      1.242591
  H       2.001949     -2.895182     -0.934780
39
Coordinates from ORCA-job reaction4-IEIP_ts_guess_scan_13-7_orca E -1288.397736838979
  Ir      0.629790     -0.721126      0.392906
  C       0.164300     -2.847063      0.306056
  C      -0.052638     -2.415462      1.662819
  C       2.172806     -2.065752      1.137596
  C       1.529175     -2.653773     -0.003537
  C       1.185567     -1.952891      2.157342
  N      -1.067982      0.131582     -0.505360
  C      -2.332295      0.332876      0.217204
  C      -3.124535      1.540620     -0.262453
  H      -3.951374      1.714240      0.424346
  H      -3.565000      1.393805     -1.249606
  H      -2.517701      2.446258     -0.279552
  C      -3.162928     -0.943736      0.143412
  H      -2.042652      0.505535      1.254906
  H      -4.063202     -0.836498      0.747146
  H      -3.471654     -1.152693     -0.881668
  H      -2.618115     -1.809030      0.517283
  C      -0.912169      0.495211     -1.734554
  C       0.410614      0.302672     -2.261173
  H      -1.714398      0.939641     -2.314164
  C       1.423511      0.031175     -1.332583
  C       2.641121     -0.247556     -2.038111
  S       0.923247      0.250063     -3.875270
  C       2.514465     -0.162939     -3.389730
  H       1.669928      1.150717     -0.680334
  H       3.587528     -0.437267     -1.551863
  H       3.283419     -0.298449     -4.134839
  H      -0.574072     -3.282690     -0.351211
  H      -0.974369     -2.477437      2.220460
  H       1.345141     -1.516814      3.133421
  O       1.582910      2.338230      0.056036
  O       0.564228      1.024525      1.519152
  C       1.069348      2.136541      1.172857
  C       1.042944      3.247650      2.180276
  H       0.873023      4.204048      1.691046
  H       2.017045      3.303527      2.669230
  H       0.289131      3.078022      2.943665
  H       3.223152     -1.841567      1.241429
  H       2.002063     -2.905006     -0.941841
39
Coordinates from ORCA-job reaction4-IEIP_ts_guess_scan_13-7_orca E -1288.399065000661
  Ir      0.620922     -0.723281      0.394537
  C       0.153538     -2.846224      0.320795
  C      -0.060925     -2.404314      1.674502
  C       2.164761     -2.061166      1.142990
  C       1.518053     -2.655737      0.006889
  C       1.179751     -1.939797      2.164250
  N      -1.076101      0.123673     -0.512487
  C      -2.342156      0.321978      0.206882
  C      -3.139374      1.524649     -0.277336
  H      -3.967836      1.696640      0.407968
  H      -3.578058      1.372822     -1.264510
  H      -2.536501      2.432850     -0.296479
  C      -3.166519     -0.958897      0.135952
  H      -2.054299      0.499005      1.244236
  H      -4.067956     -0.854001      0.738348
  H      -3.472949     -1.172424     -0.888852
  H      -2.617890     -1.820349      0.513156
  C      -0.926075      0.481769     -1.737021
  C       0.394567      0.297520     -2.258863
  H      -1.730626      0.921484     -2.317068
  C       1.409384      0.036316     -1.330167
  C       2.634312     -0.213954     -2.032813
  S       0.909817      0.254236     -3.871887
  C       2.509364     -0.122773     -3.384431
  H       1.615684      1.139220     -0.654791
  H       3.582781     -0.387708     -1.544867
  H       3.282900     -0.236282     -4.128654
  H      -0.586701     -3.285002     -0.332202
  H      -0.982104     -2.460677      2.233780
  H       1.341542     -1.496441      3.136663
  O       1.702279      2.329815      0.076636
  O       0.578755      1.031066      1.494668
  C       1.126344      2.130600      1.163972
  C       1.084579      3.238781      2.174205
  H       0.962098      4.200945      1.682235
  H       2.037027      3.266995      2.706244
  H       0.293178      3.086823      2.902633
  H       3.215320     -1.836333      1.242685
  H       1.988483     -2.912640     -0.931059
39
Coordinates from ORCA-job reaction4-IEIP_ts_guess_scan_13-7_orca E -1288.399101422033
  Ir      0.620104     -0.721962      0.394445
  C       0.152361     -2.844139      0.322964
  C      -0.062734     -2.402242      1.676393
  C       2.163107     -2.059017      1.145643
  C       1.517175     -2.654126      0.009652
  C       1.177557     -1.937520      2.166378
  N      -1.076047      0.123378     -0.514263
  C      -2.342469      0.320099      0.204795
  C      -3.142474      1.520863     -0.279695
  H      -3.971008      1.691590      0.405843
  H      -3.581318      1.367520     -1.266535
  H      -2.541449      2.430262     -0.299657
  C      -3.164414     -0.962474      0.135751
  H      -2.054482      0.498494      1.241952
  H      -4.065800     -0.858675      0.738435
  H      -3.470779     -1.177792     -0.888682
  H      -2.613828     -1.822326      0.513779
  C      -0.927225      0.482158     -1.737134
  C       0.392054      0.299337     -2.259565
  H      -1.732510      0.921907     -2.316064
  C       1.407025      0.035452     -1.331922
  C       2.631548     -0.213099     -2.035303
  S       0.908935      0.270723     -3.872301
  C       2.505841     -0.119162     -3.386697
  H       1.614521      1.142877     -0.663632
  H       3.579427     -0.392044     -1.548254
  H       3.278550     -0.233866     -4.131618
  H      -0.587562     -3.283088     -0.330251
  H      -0.984384     -2.457924      2.234990
  H       1.338931     -1.493595      3.138604
  O       1.728455      2.318154      0.088527
  O       0.577367      1.032424      1.492966
  C       1.134492      2.127514      1.167523
  C       1.088370      3.238851      2.174586
  H       0.980182      4.200838      1.678930
  H       2.033913      3.260762      2.719141
  H       0.286231      3.095097      2.892896
  H       3.213636     -1.834386      1.246006
  H       1.988071     -2.911673     -0.927886
39
Coordinates from ORCA-job reaction4-IEIP_ts_guess_scan_13-7_orca E -1288.399138574423
  Ir      0.619030     -0.724180      0.395325
  C       0.148295     -2.845413      0.328376
  C      -0.065450     -2.403156      1.681845
  C       2.160224     -2.062169      1.149089
  C       1.513347     -2.657557      0.014025
  C       1.175185     -1.939131      2.170382
  N      -1.076284      0.122176     -0.514567
  C      -2.343384      0.317435      0.203876
  C      -3.144283      1.518021     -0.279592
  H      -3.973204      1.687279      0.405808
  H      -3.582672      1.365348     -1.266736
  H      -2.544035      2.427970     -0.298342
  C      -3.164608     -0.965570      0.133736
  H      -2.055978      0.495151      1.241367
  H      -4.066375     -0.862615      0.735986
  H      -3.470241     -1.180500     -0.890999
  H      -2.613719     -1.825233      0.511637
  C      -0.927096      0.483413     -1.736581
  C       0.391487      0.300768     -2.260047
  H      -1.732672      0.923800     -2.314612
  C       1.405194      0.029799     -1.332890
  C       2.631159     -0.212243     -2.035989
  S       0.909953      0.280431     -3.872375
  C       2.508377     -0.102624     -3.386531
  H       1.615163      1.143430     -0.670305
  H       3.578284     -0.394521     -1.548774
  H       3.283116     -0.207186     -4.130854
  H      -0.592447     -3.284104     -0.324095
  H      -0.986999     -2.457039      2.240759
  H       1.337678     -1.494481      3.142092
  O       1.734645      2.315837      0.085462
  O       0.581111      1.033194      1.490398
  C       1.141006      2.126159      1.165189
  C       1.094101      3.240209      2.169386
  H       0.987174      4.201140      1.671422
  H       2.038867      3.262813      2.715248
  H       0.290832      3.098573      2.886868
  H       3.211122     -1.839149      1.249169
  H       1.983470     -2.916885     -0.923415
39
Coordinates from ORCA-job reaction4-IEIP_ts_guess_scan_13-7_orca E -1288.399193655132
  Ir      0.616297     -0.729371      0.396803
  C       0.140962     -2.848715      0.339584
  C      -0.071241     -2.405525      1.692989
  C       2.154204     -2.067525      1.157468
  C       1.506649     -2.664412      0.024008
  C       1.169376     -1.941693      2.179291
  N      -1.077177      0.118355     -0.515535
  C      -2.345459      0.310603      0.202039
  C      -3.147706      1.511316     -0.278779
  H      -3.977218      1.677523      0.406586
  H      -3.585376      1.360677     -1.266570
  H      -2.548715      2.422171     -0.294682
  C      -3.165542     -0.972968      0.128849
  H      -2.059177      0.486350      1.240266
  H      -4.068150     -0.871631      0.730079
  H      -3.469584     -1.186524     -0.896651
  H      -2.614479     -1.832662      0.506219
  C      -0.926556      0.486966     -1.735391
  C       0.391864      0.307706     -2.260055
  H      -1.732030      0.931046     -2.310745
  C       1.402111      0.018906     -1.334047
  C       2.631084     -0.210329     -2.036466
  S       0.917723      0.320724     -3.870004
  C       2.513312     -0.074484     -3.385205
  H       1.617903      1.143804     -0.680579
  H       3.575741     -0.405075     -1.549341
  H       3.290855     -0.165725     -4.128385
  H      -0.600663     -3.287684     -0.311737
  H      -0.992954     -2.456190      2.251867
  H       1.333179     -1.495054      3.149866
  O       1.733088      2.319924      0.070070
  O       0.588164      1.035503      1.482500
  C       1.145409      2.127687      1.153719
  C       1.107671      3.242045      2.158139
  H       0.997920      4.203134      1.661202
  H       2.056545      3.263613      2.696909
  H       0.309694      3.100997      2.881619
  H       3.205608     -1.846952      1.257643
  H       1.976036     -2.927344     -0.912803
39
Coordinates from ORCA-job reaction4-IEIP_ts_guess_scan_13-7_orca E -1288.399201795396
  Ir      0.616230     -0.731619      0.396491
  C       0.140530     -2.850057      0.340366
  C      -0.073427     -2.406739      1.693524
  C       2.152738     -2.068697      1.160840
  C       1.506900     -2.666277      0.026811
  C       1.166430     -1.942605      2.181376
  N      -1.076267      0.117125     -0.515795
  C      -2.343859      0.309987      0.202741
  C      -3.145690      1.511256     -0.277290
  H      -3.974535      1.677703      0.408840
  H      -3.584223      1.361180     -1.264791
  H      -2.546207      2.421787     -0.293350
  C      -3.164574     -0.973129      0.129791
  H      -2.056707      0.485506      1.240755
  H      -4.066993     -0.871179      0.731204
  H      -3.468937     -1.186563     -0.895628
  H      -2.613960     -1.833178      0.507101
  C      -0.925984      0.487730     -1.734896
  C       0.392158      0.308504     -2.259935
  H      -1.731229      0.933557     -2.309179
  C       1.401968      0.016064     -1.334651
  C       2.631230     -0.210536     -2.037427
  S       0.919246      0.329754     -3.869345
  C       2.514108     -0.068899     -3.385702
  H       1.618769      1.143870     -0.684844
  H       3.575400     -0.408884     -1.550813
  H       3.291933     -0.157308     -4.128933
  H      -0.600120     -3.289346     -0.311846
  H      -0.996062     -2.456911      2.250924
  H       1.328965     -1.495469      3.151922
  O       1.728072      2.321253      0.064704
  O       0.588609      1.034540      1.479697
  C       1.143291      2.127519      1.149867
  C       1.106924      3.241468      2.154819
  H       0.994664      4.202612      1.658540
  H       2.057225      3.263873      2.691018
  H       0.311098      3.099203      2.880436
  H       3.204004     -1.848146      1.262550
  H       1.977650     -2.929759     -0.909155
39
Coordinates from ORCA-job reaction4-IEIP_ts_guess_scan_13-7_orca E -1288.399206367043
  Ir      0.616612     -0.733389      0.396130
  C       0.141615     -2.851340      0.340052
  C      -0.075042     -2.407683      1.692810
  C       2.152040     -2.068972      1.164363
  C       1.508732     -2.667435      0.029359
  C       1.163628     -1.942951      2.183053
  N      -1.076015      0.116466     -0.515765
  C      -2.343211      0.309304      0.203629
  C      -3.144541      1.511591     -0.274678
  H      -3.972945      1.677570      0.412120
  H      -3.583625      1.363066     -1.262163
  H      -2.544621      2.421856     -0.289786
  C      -3.164611     -0.973259      0.129205
  H      -2.055574      0.483581      1.241686
  H      -4.067047     -0.871388      0.730619
  H      -3.468995     -1.185382     -0.896472
  H      -2.614634     -1.834120      0.505561
  C      -0.925928      0.488790     -1.734339
  C       0.392153      0.308959     -2.259607
  H      -1.730812      0.936020     -2.307983
  C       1.402051      0.014731     -1.334959
  C       2.631188     -0.210783     -2.038358
  S       0.919414      0.334102     -3.868852
  C       2.513926     -0.066733     -3.386417
  H       1.618752      1.144142     -0.687778
  H       3.575249     -0.411129     -1.552341
  H       3.291610     -0.154006     -4.129924
  H      -0.597478     -3.291416     -0.313392
  H      -0.998818     -2.457878      2.248316
  H       1.324122     -1.495418      3.153744
  O       1.725622      2.322269      0.060951
  O       0.589492      1.034271      1.477658
  C       1.142559      2.127859      1.146967
  C       1.106799      3.241487      2.152261
  H       0.993159      4.202681      1.656381
  H       2.057873      3.264293      2.687069
  H       0.312154      3.098521      2.879034
  H       3.203011     -1.847960      1.268123
  H       1.981504     -2.931127     -0.905536
39
Coordinates from ORCA-job reaction4-IEIP_ts_guess_scan_13-7_orca E -1288.399209566133
  Ir      0.617352     -0.734955      0.395524
  C       0.144227     -2.852585      0.338399
  C      -0.077444     -2.408544      1.690442
  C       2.151155     -2.068129      1.169735
  C       1.512512     -2.667898      0.032867
  C       1.158908     -1.942754      2.185115
  N      -1.075739      0.116270     -0.515221
  C      -2.342508      0.308435      0.205160
  C      -3.143230      1.512259     -0.270288
  H      -3.971335      1.677031      0.417179
  H      -3.582624      1.366400     -1.258030
  H      -2.542862      2.422265     -0.283301
  C      -3.164503     -0.973547      0.127681
  H      -2.054419      0.480395      1.243441
  H      -4.067004     -0.872612      0.729172
  H      -3.468848     -1.183112     -0.898529
  H      -2.615082     -1.835676      0.501953
  C      -0.926128      0.490442     -1.733269
  C       0.391836      0.309683     -2.259123
  H      -1.730640      0.939314     -2.306122
  C       1.402237      0.014153     -1.335389
  C       2.630641     -0.211722     -2.040051
  S       0.918043      0.336251     -3.868594
  C       2.512519     -0.066431     -3.387923
  H       1.618611      1.144907     -0.691317
  H       3.574866     -0.413722     -1.555025
  H       3.289580     -0.153623     -4.132084
  H      -0.591958     -3.294146     -0.317306
  H      -1.003185     -2.459260      2.242629
  H       1.315525     -1.494854      3.156256
  O       1.724171      2.323365      0.057077
  O       0.591036      1.034081      1.475178
  C       1.142645      2.128305      1.143750
  C       1.106883      3.241521      2.149446
  H       0.992313      4.202841      1.654014
  H       2.058379      3.264551      2.683508
  H       0.312931      3.097858      2.876825
  H       3.201541     -1.846087      1.277163
  H       1.988967     -2.931477     -0.900199
39
Coordinates from ORCA-job reaction4-IEIP_ts_guess_scan_13-7_orca E -1288.399211288192
  Ir      0.618138     -0.735558      0.395134
  C       0.147766     -2.853444      0.336222
  C      -0.079415     -2.409464      1.687589
  C       2.150592     -2.066292      1.175191
  C       1.517142     -2.667315      0.036244
  C       1.154172     -1.942312      2.187068
  N      -1.075821      0.116412     -0.514394
  C      -2.342480      0.307457      0.206462
  C      -3.142476      1.512984     -0.265865
  H      -3.970682      1.676229      0.421846
  H      -3.581620      1.370211     -1.254164
  H      -2.541645      2.422719     -0.276086
  C      -3.165034     -0.973945      0.125156
  H      -2.054352      0.476567      1.245189
  H      -4.067559     -0.874503      0.726869
  H      -3.469396     -1.180277     -0.901706
  H      -2.615992     -1.837498      0.496674
  C      -0.926731      0.491649     -1.732160
  C       0.391062      0.310391     -2.258807
  H      -1.731124      0.941548     -2.304372
  C       1.402120      0.014383     -1.335827
  C       2.629573     -0.212935     -2.041856
  S       0.915516      0.335773     -3.868765
  C       2.510243     -0.068034     -3.389618
  H       1.618291      1.145918     -0.694001
  H       3.574180     -0.415442     -1.557769
  H       3.286492     -0.156155     -4.134513
  H      -0.585146     -3.296754     -0.321948
  H      -1.007188     -2.461256      2.236265
  H       1.306413     -1.494301      3.158846
  O       1.724194      2.324286      0.054487
  O       0.593005      1.034376      1.473608
  C       1.143774      2.128923      1.141613
  C       1.108084      3.241926      2.147542
  H       0.993482      4.203399      1.652418
  H       2.059657      3.264747      2.681495
  H       0.314252      3.098068      2.875006
  H       3.200289     -1.842956      1.286604
  H       1.997595     -2.930335     -0.894936
39
Coordinates from ORCA-job reaction4-IEIP_ts_guess_scan_13-7_orca E -1288.399212766251
  Ir      0.618895     -0.735406      0.394892
  C       0.152468     -2.854021      0.333122
  C      -0.081545     -2.410887      1.683822
  C       2.149952     -2.063337      1.181637
  C       1.523038     -2.665625      0.040018
  C       1.148408     -1.941880      2.189283
  N      -1.076061      0.116645     -0.513312
  C      -2.342741      0.306327      0.207772
  C      -3.141756      1.513925     -0.260880
  H      -3.970245      1.675442      0.426884
  H      -3.580391      1.374849     -1.249930
  H      -2.540237      2.423234     -0.267705
  C      -3.165969     -0.974383      0.122003
  H      -2.054739      0.471918      1.247108
  H      -4.068225     -0.876966      0.724450
  H      -3.470815     -1.176644     -0.905533
  H      -2.617045     -1.839628      0.489775
  C      -0.927728      0.492150     -1.731045
  C       0.389747      0.310844     -2.258815
  H      -1.732346      0.942480     -2.302637
  C       1.401555      0.014894     -1.336512
  C       2.627953     -0.214448     -2.043970
  S       0.911975      0.333555     -3.869418
  C       2.507202     -0.070823     -3.391639
  H       1.617732      1.147052     -0.696440
  H       3.573089     -0.416676     -1.560781
  H       3.282526     -0.160384     -4.137328
  H      -0.576315     -3.299416     -0.328195
  H      -1.011784     -2.464409      2.228156
  H       1.295104     -1.494047      3.161991
  O       1.724690      2.325230      0.052196
  O       0.595446      1.034984      1.472552
  C       1.145509      2.129660      1.139891
  C       1.110337      3.242627      2.145924
  H       0.996334      4.204283      1.651032
  H       2.061850      3.264828      2.680028
  H       0.316359      3.099009      2.873276
  H       3.198750     -1.838327      1.298033
  H       2.008393     -2.927440     -0.888965
39
Coordinates from ORCA-job reaction4-IEIP_ts_guess_scan_13-7_orca E -1288.399214720015
  Ir      0.619464     -0.734830      0.394930
  C       0.157579     -2.854400      0.329637
  C      -0.083360     -2.413014      1.679871
  C       2.149410     -2.060018      1.188036
  C       1.529240     -2.663256      0.043548
  C       1.142739     -1.941950      2.191487
  N      -1.076411      0.116537     -0.512274
  C      -2.343104      0.305278      0.208943
  C      -3.140700      1.515151     -0.256190
  H      -3.969417      1.675419      0.431572
  H      -3.578907      1.379753     -1.245942
  H      -2.538078      2.423741     -0.259860
  C      -3.167427     -0.974485      0.119120
  H      -2.055235      0.467363      1.248880
  H      -4.069000     -0.878893      0.722869
  H      -3.473433     -1.172559     -0.908898
  H      -2.618561     -1.841521      0.482788
  C      -0.929004      0.491403     -1.730265
  C       0.388042      0.310422     -2.259221
  H      -1.734208      0.941349     -2.301389
  C       1.400521      0.014989     -1.337405
  C       2.626185     -0.215756     -2.045897
  S       0.908449      0.330756     -3.870360
  C       2.504254     -0.073530     -3.393498
  H       1.616863      1.147683     -0.698261
  H       3.571818     -0.417173     -1.563322
  H       3.278847     -0.164199     -4.139816
  H      -0.566940     -3.301722     -0.335033
  H      -1.016095     -2.468597      2.219721
  H       1.283711     -1.494607      3.165263
  O       1.724746      2.325926      0.050140
  O       0.597758      1.035652      1.472231
  C       1.147077      2.130305      1.138652
  C       1.112905      3.243562      2.144467
  H       0.999808      4.205287      1.649535
  H       2.064353      3.264992      2.678730
  H       0.318731      3.100637      2.871755
  H       3.197244     -1.833251      1.309571
  H       2.019507     -2.923251     -0.883373
39
Coordinates from ORCA-job reaction4-IEIP_ts_guess_scan_13-7_orca E -1288.399217503986
  Ir      0.619862     -0.734169      0.395209
  C       0.163159     -2.854696      0.325551
  C      -0.085127     -2.415978      1.675480
  C       2.148839     -2.056502      1.194747
  C       1.535914     -2.660348      0.047007
  C       1.136807     -1.942688      2.193795
  N      -1.076747      0.115893     -0.511299
  C      -2.343282      0.304326      0.210245
  C      -3.138877      1.516850     -0.251353
  H      -3.967554      1.676472      0.436599
  H      -3.577026      1.385248     -1.241645
  H      -2.534589      2.424329     -0.252212
  C      -3.169309     -0.974102      0.116795
  H      -2.055360      0.462874      1.250716
  H      -4.069695     -0.880004      0.722533
  H      -3.477314     -1.167789     -0.911472
  H      -2.620554     -1.843151      0.475892
  C      -0.930541      0.489278     -1.729856
  C       0.385970      0.308711     -2.260005
  H      -1.736668      0.938031     -2.300667
  C       1.399070      0.014216     -1.338579
  C       2.624421     -0.216763     -2.047639
  S       0.905194      0.327734     -3.871514
  C       2.501628     -0.075565     -3.395199
  H       1.615597      1.147457     -0.699733
  H       3.570467     -0.417084     -1.565407
  H       3.275753     -0.166540     -4.141965
  H      -0.556788     -3.303734     -0.342894
  H      -1.020564     -2.473854      2.210407
  H       1.271653     -1.496161      3.168807
  O       1.723771      2.326264      0.047738
  O       0.599744      1.036249      1.472366
  C       1.147945      2.130864      1.137356
  C       1.115363      3.244707      2.142637
  H       1.003415      4.206371      1.647370
  H       2.066807      3.265161      2.676947
  H       0.321046      3.102964      2.870024
  H       3.195607     -1.827876      1.321845
  H       2.031331     -2.917804     -0.877887
39
Coordinates from ORCA-job reaction4-IEIP_ts_guess_scan_13-7_orca E -1288.399220251107
  Ir      0.620138     -0.733926      0.395633
  C       0.167738     -2.854985      0.321938
  C      -0.086394     -2.418952      1.671764
  C       2.148471     -2.054029      1.200076
  C       1.541365     -2.657968      0.049531
  C       1.132228     -1.943986      2.195615
  N      -1.076898      0.114820     -0.510536
  C      -2.343062      0.303709      0.211607
  C      -3.136447      1.518745     -0.247170
  H      -3.964746      1.678474      0.441221
  H      -3.575001      1.390302     -1.237698
  H      -2.530280      2.424960     -0.246157
  C      -3.171135     -0.973210      0.115606
  H      -2.054850      0.459465      1.252400
  H      -4.070225     -0.879808      0.723370
  H      -3.481346     -1.163267     -0.912677
  H      -2.622759     -1.844129      0.470813
  C      -0.931872      0.486507     -1.729772
  C       0.384174      0.306104     -2.260768
  H      -1.738922      0.933770     -2.300471
  C       1.397772      0.012556     -1.339681
  C       2.623257     -0.217223     -2.048794
  S       0.903218      0.325867     -3.872388
  C       2.500041     -0.076231     -3.396355
  H       1.614415      1.146182     -0.700556
  H       3.569526     -0.416745     -1.566665
  H       3.274028     -0.166561     -4.143342
  H      -0.548548     -3.305037     -0.349734
  H      -1.024062     -2.478599      2.202588
  H       1.262194     -1.498384      3.171705
  O       1.722227      2.325939      0.045467
  O       0.600911      1.036477      1.472706
  C       1.148115      2.131025      1.136175
  C       1.116318      3.245838      2.140407
  H       1.005407      4.207158      1.644275
  H       2.067541      3.265777      2.675126
  H       0.321627      3.105414      2.867664
  H       3.194365     -1.823975      1.331707
  H       2.040842     -2.912884     -0.873888
39
Coordinates from ORCA-job reaction4-IEIP_ts_guess_scan_13-7_orca E -1288.399221623674
  Ir      0.620283     -0.734075      0.395972
  C       0.170103     -2.855159      0.319958
  C      -0.087013     -2.420605      1.669761
  C       2.148357     -2.053023      1.202872
  C       1.544216     -2.656808      0.050774
  C       1.129987     -1.944912      2.196571
  N      -1.076890      0.113864     -0.510145
  C      -2.342683      0.303423      0.212580
  C      -3.134517      1.520058     -0.244678
  H      -3.962365      1.680206      0.444177
  H      -3.573601      1.393419     -1.235200
  H      -2.527040      2.425390     -0.242873
  C      -3.172263     -0.972406      0.115333
  H      -2.054144      0.457742      1.253466
  H      -4.070564     -0.879028      0.724275
  H      -3.483856     -1.160479     -0.912895
  H      -2.624377     -1.844510      0.468441
  C      -0.932625      0.484362     -1.729893
  C       0.383187      0.303743     -2.261187
  H      -1.740224      0.930481     -2.300697
  C       1.397117      0.010879     -1.340357
  C       2.622911     -0.217182     -2.049258
  S       0.902566      0.324822     -3.872796
  C       2.499639     -0.075590     -3.396835
  H       1.613736      1.144647     -0.700876
  H       3.569259     -0.416281     -1.567114
  H       3.273755     -0.164673     -4.143839
  H      -0.544318     -3.305502     -0.353494
  H      -1.025890     -2.480993      2.198371
  H       1.257506     -1.499938      3.173264
  O       1.720696      2.325276      0.043888
  O       0.600844      1.036512      1.472841
  C       1.147027      2.131185      1.135001
  C       1.116179      3.246454      2.138718
  H       1.006312      4.207637      1.642112
  H       2.067281      3.265559      2.673691
  H       0.321227      3.107148      2.865911
  H       3.193800     -1.822284      1.336860
  H       2.045752     -2.910168     -0.871958
39
Coordinates from ORCA-job reaction4-IEIP_ts_guess_scan_13-7_orca E -1288.399221798410
  Ir      0.620487     -0.734434      0.396119
  C       0.170426     -2.855273      0.319440
  C      -0.087072     -2.420970      1.669275
  C       2.148474     -2.053397      1.203238
  C       1.544674     -2.656889      0.050792
  C       1.129818     -1.945451      2.196639
  N      -1.076678      0.113487     -0.509872
  C      -2.342258      0.303407      0.213205
  C      -3.133448      1.520689     -0.243500
  H      -3.961026      1.681080      0.445640
  H      -3.572852      1.394740     -1.233966
  H      -2.525450      2.425669     -0.241471
  C      -3.172506     -0.971932      0.115478
  H      -2.053522      0.457265      1.254080
  H      -4.070639     -0.878373      0.724649
  H      -3.484435     -1.159361     -0.912762
  H      -2.625022     -1.844519      0.468034
  C      -0.932671      0.483694     -1.729793
  C       0.383104      0.302833     -2.261085
  H      -1.740369      0.929545     -2.300647
  C       1.397205      0.009972     -1.340497
  C       2.623112     -0.217091     -2.049337
  S       0.902838      0.325494     -3.872650
  C       2.499733     -0.075113     -3.396943
  H       1.613940      1.143548     -0.700588
  H       3.569459     -0.416414     -1.567289
  H       3.273871     -0.163716     -4.143983
  H      -0.543780     -3.305393     -0.354387
  H      -1.026178     -2.481263      2.197494
  H       1.257086     -1.500795      3.173507
  O       1.720856      2.324554      0.043585
  O       0.600699      1.036314      1.472799
  C       1.147241      2.130838      1.134763
  C       1.114704      3.246870      2.137523
  H       1.005377      4.207648      1.640008
  H       2.065042      3.266430      2.673827
  H       0.318776      3.108022      2.863735
  H       3.193878     -1.822697      1.337592
  H       2.046477     -2.909825     -0.871911
