39
Coordinates from ORCA-job reaction4-IEIP_ts_guess_scan_11-3_orca E -1288.398940353869
  Ir      0.635303     -0.710828      0.406996
  C       0.148129     -2.826382      0.296710
  C       0.022453     -2.378903      1.658567
  C       2.217369     -2.072302      0.996339
  C       1.484785     -2.637596     -0.109094
  C       1.312025     -1.944378      2.078150
  N      -1.051886      0.138396     -0.519703
  C      -2.309635      0.397456      0.197599
  C      -3.088882      1.585574     -0.347066
  H      -3.906060      1.813968      0.335704
  H      -3.542577      1.385746     -1.318706
  H      -2.468729      2.478796     -0.425039
  C      -3.154136     -0.871988      0.208794
  H      -2.006815      0.625815      1.220229
  H      -4.045776     -0.716312      0.814500
  H      -3.477226     -1.139881     -0.797984
  H      -2.613856     -1.717686      0.631640
  C      -0.908260      0.408548     -1.758064
  C       0.416213      0.200633     -2.261180
  H      -1.712773      0.803388     -2.370591
  C       1.469507      0.170765     -1.341636
  C       2.688757     -0.139887     -2.023525
  S       0.891450     -0.137559     -3.851055
  C       2.524778     -0.329372     -3.359318
  H       1.519934      1.166919     -0.636281
  H       3.655831     -0.164287     -1.542506
  H       3.281919     -0.547305     -4.097179
  H      -0.643874     -3.236518     -0.313035
  H      -0.861391     -2.431005      2.276194
  H       1.544987     -1.516640      3.043069
  O       1.476733      2.409915      0.122903
  O       0.564869      0.981150      1.565869
  C       1.002049      2.139130      1.230994
  C       0.938675      3.188976      2.304149
  H       0.890056      4.183812      1.869544
  H       1.848446      3.133833      2.904919
  H       0.095299      3.029895      2.971996
  H       3.272194     -1.845816      1.018993
  H       1.889481     -2.878880     -1.081155
39
Coordinates from ORCA-job reaction4-IEIP_ts_guess_scan_11-3_orca E -1288.398910985865
  Ir      0.631821     -0.702972      0.402455
  C       0.151027     -2.822771      0.298433
  C       0.025081     -2.374967      1.660020
  C       2.217585     -2.060441      0.995903
  C       1.486798     -2.630512     -0.108171
  C       1.312063     -1.934179      2.077515
  N      -1.061704      0.136676     -0.522964
  C      -2.319367      0.395102      0.194894
  C      -3.102625      1.578446     -0.354420
  H      -3.920108      1.807212      0.327829
  H      -3.556194      1.372949     -1.324945
  H      -2.485386      2.473329     -0.436666
  C      -3.160203     -0.876665      0.212440
  H      -2.016392      0.628835      1.216286
  H      -4.051831     -0.720974      0.818156
  H      -3.483359     -1.149907     -0.792896
  H      -2.617160     -1.718944      0.638538
  C      -0.917808      0.400832     -1.767440
  C       0.410048      0.195939     -2.273095
  H      -1.724071      0.789881     -2.381324
  C       1.461973      0.171863     -1.351491
  C       2.683723     -0.136316     -2.030773
  S       0.889014     -0.144849     -3.861318
  C       2.522365     -0.330966     -3.366121
  H       1.512028      1.188137     -0.664184
  H       3.650447     -0.154095     -1.548593
  H       3.281529     -0.548723     -4.101862
  H      -0.639712     -3.237144     -0.310133
  H      -0.857871     -2.429981      2.278577
  H       1.543894     -1.504553      3.041862
  O       1.581971      2.379435      0.171988
  O       0.549798      0.990078      1.565688
  C       1.037487      2.132832      1.253685
  C       0.950602      3.189466      2.318195
  H       0.957880      4.183286      1.878563
  H       1.824380      3.107808      2.967414
  H       0.067692      3.060796      2.939795
  H       3.271845     -1.831385      1.018493
  H       1.892108     -2.873366     -1.079592
39
Coordinates from ORCA-job reaction4-IEIP_ts_guess_scan_11-3_orca E -1288.398566739177
  Ir      0.641202     -0.709234      0.404145
  C       0.147251     -2.830867      0.297900
  C       0.026255     -2.391165      1.662358
  C       2.217493     -2.082013      0.995926
  C       1.483543     -2.644542     -0.109619
  C       1.313023     -1.956149      2.078362
  N      -1.052082      0.142551     -0.510329
  C      -2.309370      0.400228      0.208249
  C      -3.086081      1.591714     -0.332819
  H      -3.904652      1.817795      0.348965
  H      -3.537445      1.396498     -1.306521
  H      -2.465122      2.484888     -0.405455
  C      -3.156250     -0.867588      0.212690
  H      -2.007481      0.623419      1.232344
  H      -4.048578     -0.713228      0.817715
  H      -3.478458     -1.130319     -0.795781
  H      -2.618172     -1.716188      0.632457
  C      -0.899449      0.420092     -1.760776
  C       0.433118      0.212839     -2.274901
  H      -1.703130      0.819523     -2.371274
  C       1.482125      0.155607     -1.349626
  C       2.700990     -0.165537     -2.029885
  S       0.912393     -0.111082     -3.866555
  C       2.540609     -0.337647     -3.368217
  H       1.567443      1.195786     -0.676747
  H       3.666183     -0.205009     -1.545620
  H       3.298448     -0.558971     -4.104095
  H      -0.646027     -3.239728     -0.311162
  H      -0.855494     -2.445803      2.282452
  H       1.547865     -1.532504      3.044610
  O       1.392544      2.411843      0.106759
  O       0.560056      0.981273      1.582960
  C       0.964906      2.144215      1.235926
  C       0.919844      3.200428      2.302608
  H       0.837665      4.191286      1.863765
  H       1.850737      3.165917      2.871613
  H       0.103114      3.029981      2.999818
  H       3.273359     -1.860787      1.020091
  H       1.886995     -2.888332     -1.081591
39
Coordinates from ORCA-job reaction4-IEIP_ts_guess_scan_11-3_orca E -1288.399253812297
  Ir      0.633856     -0.710173      0.406490
  C       0.140508     -2.828630      0.308322
  C       0.019364     -2.381085      1.670143
  C       2.211668     -2.076552      1.001597
  C       1.476820     -2.643921     -0.100874
  C       1.307821     -1.945131      2.084310
  N      -1.055528      0.137230     -0.516258
  C      -2.314368      0.392013      0.199186
  C      -3.094912      1.579160     -0.345763
  H      -3.915031      1.804152      0.334602
  H      -3.544570      1.379656     -1.319365
  H      -2.476953      2.474196     -0.420179
  C      -3.156026     -0.879356      0.206084
  H      -2.014004      0.618899      1.222839
  H      -4.049443     -0.726931      0.810016
  H      -3.476204     -1.146039     -0.801942
  H      -2.614742     -1.724590      0.628589
  C      -0.908190      0.412937     -1.759400
  C       0.419974      0.210770     -2.269320
  H      -1.713608      0.809633     -2.369346
  C       1.470588      0.160597     -1.346352
  C       2.691806     -0.144783     -2.028957
  S       0.899101     -0.106835     -3.861930
  C       2.531561     -0.309973     -3.368335
  H       1.534964      1.178314     -0.652644
  H       3.657566     -0.177983     -1.545680
  H       3.290626     -0.517558     -4.107159
  H      -0.653214     -3.239606     -0.298626
  H      -0.862773     -2.431336      2.290191
  H       1.543160     -1.515973      3.048001
  O       1.491477      2.410965      0.123207
  O       0.565716      0.986329      1.564085
  C       1.010218      2.141196      1.230489
  C       0.947061      3.193312      2.300377
  H       0.904197      4.187568      1.863798
  H       1.854050      3.135438      2.904992
  H       0.100063      3.038323      2.964433
  H       3.267316     -1.854027      1.023432
  H       1.879453     -2.891016     -1.072315
39
Coordinates from ORCA-job reaction4-IEIP_ts_guess_scan_11-3_orca E -1288.399299907368
  Ir      0.633750     -0.710660      0.406940
  C       0.140420     -2.829080      0.311498
  C       0.018667     -2.381159      1.672978
  C       2.211129     -2.076468      1.004854
  C       1.476974     -2.644746     -0.097414
  C       1.306616     -1.944510      2.087029
  N      -1.055365      0.135981     -0.517317
  C      -2.314457      0.390386      0.198048
  C      -3.095744      1.577582     -0.345874
  H      -3.915664      1.801892      0.334933
  H      -3.545802      1.378437     -1.319341
  H      -2.478167      2.472907     -0.420052
  C      -3.156126     -0.881030      0.204865
  H      -2.014047      0.616947      1.221853
  H      -4.049654     -0.728684      0.808675
  H      -3.476114     -1.147626     -0.803239
  H      -2.614901     -1.726231      0.627400
  C      -0.908199      0.413269     -1.759717
  C       0.419106      0.212219     -2.270687
  H      -1.713869      0.810967     -2.368593
  C       1.469443      0.157231     -1.347825
  C       2.690504     -0.145353     -2.031731
  S       0.899189     -0.090827     -3.865677
  C       2.530006     -0.305484     -3.371715
  H       1.536560      1.179172     -0.659031
  H       3.655984     -0.183303     -1.548307
  H       3.288708     -0.512006     -4.111190
  H      -0.652942     -3.240609     -0.295539
  H      -0.863814     -2.430802      2.292575
  H       1.541536     -1.514502      3.050453
  O       1.502901      2.405479      0.127293
  O       0.563838      0.987311      1.563526
  C       1.012689      2.140073      1.231693
  C       0.948344      3.194246      2.299809
  H       0.911961      4.188065      1.861666
  H       1.851885      3.133491      2.909335
  H       0.097213      3.043756      2.959635
  H       3.266814     -1.854190      1.027331
  H       1.880001     -2.892951     -1.068399
39
Coordinates from ORCA-job reaction4-IEIP_ts_guess_scan_11-3_orca E -1288.399352299112
  Ir      0.633157     -0.714935      0.409572
  C       0.135156     -2.832078      0.322020
  C       0.013840     -2.382336      1.682645
  C       2.206917     -2.082337      1.013905
  C       1.472449     -2.651697     -0.087217
  C       1.301786     -1.946468      2.095369
  N      -1.054050      0.133469     -0.517840
  C      -2.314225      0.385550      0.196918
  C      -3.096823      1.573505     -0.343656
  H      -3.916908      1.795007      0.337808
  H      -3.546890      1.376582     -1.317558
  H      -2.480250      2.469744     -0.415381
  C      -3.155533     -0.886219      0.200510
  H      -2.014729      0.609762      1.221629
  H      -4.049952     -0.735297      0.803372
  H      -3.474007     -1.151035     -0.808544
  H      -2.614619     -1.731946      0.622242
  C      -0.906333      0.416777     -1.758571
  C       0.419163      0.217206     -2.272209
  H      -1.712330      0.817589     -2.364931
  C       1.468230      0.145660     -1.349076
  C       2.689701     -0.146899     -2.036577
  S       0.900514     -0.058533     -3.871384
  C       2.531140     -0.279160     -3.379900
  H       1.541953      1.174867     -0.666797
  H       3.654416     -0.195532     -1.552664
  H       3.290721     -0.471158     -4.122363
  H      -0.658651     -3.243496     -0.284525
  H      -0.869158     -2.428315      2.301744
  H       1.537269     -1.514351      3.057725
  O       1.516616      2.397853      0.124992
  O       0.566229      0.988552      1.560728
  C       1.020843      2.137501      1.228545
  C       0.953016      3.197831      2.290757
  H       0.920681      4.189464      1.847380
  H       1.853374      3.138555      2.905117
  H       0.098278      3.052304      2.947071
  H       3.263173     -1.862907      1.037148
  H       1.875206     -2.903888     -1.057266
39
Coordinates from ORCA-job reaction4-IEIP_ts_guess_scan_11-3_orca E -1288.399378124571
  Ir      0.631134     -0.720323      0.412973
  C       0.127146     -2.835218      0.335191
  C       0.005886     -2.382289      1.694591
  C       2.200207     -2.089123      1.026007
  C       1.465595     -2.660047     -0.073893
  C       1.293987     -1.947549      2.106243
  N      -1.052962      0.130284     -0.517970
  C      -2.314738      0.377484      0.195867
  C      -3.099599      1.565636     -0.341006
  H      -3.920557      1.782621      0.340798
  H      -3.548738      1.371265     -1.315880
  H      -2.485131      2.463625     -0.409064
  C      -3.153782     -0.895842      0.193800
  H      -2.017308      0.598673      1.221874
  H      -4.050032     -0.748200      0.794730
  H      -3.469115     -1.158309     -0.816862
  H      -2.612521     -1.741824      0.614516
  C      -0.904214      0.423706     -1.756082
  C       0.419960      0.228227     -2.272291
  H      -1.710264      0.830028     -2.358744
  C       1.467118      0.132642     -1.348957
  C       2.689120     -0.147820     -2.040861
  S       0.905023     -0.003326     -3.876935
  C       2.532637     -0.247440     -3.387334
  H       1.548646      1.165709     -0.667412
  H       3.652418     -0.214355     -1.556278
  H       3.292705     -0.425751     -4.132711
  H      -0.667039     -3.246543     -0.270948
  H      -0.878028     -2.423239      2.312684
  H       1.529890     -1.512274      3.067084
  O       1.526198      2.394928      0.114754
  O       0.570560      0.991003      1.554203
  C       1.026515      2.137532      1.218086
  C       0.964023      3.201615      2.277046
  H       0.933855      4.191881      1.830532
  H       1.865318      3.141589      2.889944
  H       0.110002      3.060651      2.935256
  H       3.257132     -1.873116      1.050387
  H       1.868322     -2.917318     -1.042601
39
Coordinates from ORCA-job reaction4-IEIP_ts_guess_scan_11-3_orca E -1288.399380114869
  Ir      0.630681     -0.722495      0.413831
  C       0.123620     -2.836063      0.338679
  C       0.001712     -2.381432      1.697573
  C       2.197264     -2.092422      1.030789
  C       1.462924     -2.663524     -0.069205
  C       1.290105     -1.948039      2.109953
  N      -1.052050      0.130196     -0.517263
  C      -2.314149      0.374778      0.196838
  C      -3.100501      1.562326     -0.339101
  H      -3.921666      1.777533      0.343017
  H      -3.549454      1.368217     -1.314135
  H      -2.487301      2.461235     -0.406436
  C      -3.151475     -0.899661      0.192836
  H      -2.017396      0.595363      1.223143
  H      -4.048666     -0.753616      0.792766
  H      -3.465232     -1.161836     -0.818384
  H      -2.609741     -1.745308      0.613566
  C      -0.903032      0.429027     -1.754313
  C       0.420614      0.234076     -2.271867
  H      -1.708977      0.838177     -2.355147
  C       1.467470      0.127009     -1.349389
  C       2.688836     -0.150521     -2.043489
  S       0.905679      0.016664     -3.878493
  C       2.532745     -0.234276     -3.391193
  H       1.554020      1.159254     -0.665061
  H       3.651745     -0.225318     -1.559321
  H       3.292705     -0.406336     -4.138152
  H      -0.670440     -3.247020     -0.267857
  H      -0.882916     -2.420145      2.314786
  H       1.525802     -1.511665      3.070350
  O       1.536180      2.391242      0.112855
  O       0.572480      0.991404      1.551677
  C       1.033401      2.136007      1.215476
  C       0.965214      3.203704      2.270259
  H       0.936094      4.192273      1.819891
  H       1.863949      3.146665      2.887118
  H       0.108444      3.064375      2.925184
  H       3.254490     -1.877991      1.056140
  H       1.866192     -2.922667     -1.037178
39
Coordinates from ORCA-job reaction4-IEIP_ts_guess_scan_11-3_orca E -1288.399381464516
  Ir      0.630167     -0.723039      0.414034
  C       0.122318     -2.836008      0.340078
  C      -0.001696     -2.379475      1.698356
  C       2.195380     -2.092883      1.035260
  C       1.462562     -2.664683     -0.065438
  C       1.286450     -1.946617      2.112689
  N      -1.052078      0.130783     -0.517123
  C      -2.314601      0.372837      0.197140
  C      -3.103103      1.558972     -0.338791
  H      -3.924487      1.772668      0.343546
  H      -3.551914      1.364018     -1.313731
  H      -2.491604      2.459027     -0.406290
  C      -3.149761     -0.902996      0.192272
  H      -2.018510      0.593838      1.223521
  H      -4.047997     -0.758334      0.791001
  H      -3.461794     -1.165879     -0.819286
  H      -2.607384     -1.747781      0.613792
  C      -0.902696      0.433969     -1.753342
  C       0.420636      0.238952     -2.271670
  H      -1.708445      0.845077     -2.352993
  C       1.467514      0.123483     -1.350354
  C       2.687949     -0.153230     -2.046044
  S       0.904784      0.028161     -3.879633
  C       2.531729     -0.226108     -3.394503
  H       1.558818      1.153439     -0.661935
  H       3.650744     -0.233601     -1.562538
  H       3.291449     -0.394072     -4.142641
  H      -0.670744     -3.247422     -0.267424
  H      -0.887321     -2.417142      2.314214
  H       1.520808     -1.509209      3.072944
  O       1.546660      2.386946      0.113680
  O       0.571501      0.992350      1.549974
  C       1.036397      2.135622      1.213732
  C       0.968635      3.204513      2.267126
  H       0.943620      4.192502      1.815209
  H       1.865641      3.145715      2.886304
  H       0.109712      3.068585      2.919880
  H       3.252650     -1.878829      1.062177
  H       1.867382     -2.924955     -1.032452
39
Coordinates from ORCA-job reaction4-IEIP_ts_guess_scan_11-3_orca E -1288.399384530895
  Ir      0.630121     -0.722677      0.413649
  C       0.122819     -2.835548      0.339591
  C      -0.004363     -2.377230      1.697223
  C       2.194479     -2.091948      1.039295
  C       1.464093     -2.664525     -0.062635
  C       1.283097     -1.944580      2.114487
  N      -1.052198      0.132107     -0.516925
  C      -2.315092      0.371621      0.197666
  C      -3.106252      1.556140     -0.338058
  H      -3.927716      1.768170      0.344700
  H      -3.555169      1.360110     -1.312738
  H      -2.496749      2.457523     -0.405948
  C      -3.148012     -0.905645      0.192136
  H      -2.019451      0.593151      1.224052
  H      -4.047301     -0.762343      0.789644
  H      -3.458332     -1.169351     -0.819725
  H      -2.605032     -1.749534      0.614531
  C      -0.902493      0.439659     -1.752207
  C       0.420429      0.244538     -2.271409
  H      -1.707944      0.853135     -2.350517
  C       1.467689      0.121200     -1.351901
  C       2.686512     -0.156662     -2.049396
  S       0.902975      0.039900     -3.880966
  C       2.528811     -0.223714     -3.398151
  H       1.565116      1.147363     -0.657643
  H       3.649402     -0.242706     -1.567064
  H       3.287440     -0.391611     -4.147408
  H      -0.668626     -3.247859     -0.269377
  H      -0.891183     -2.414764      2.311379
  H       1.515280     -1.506398      3.074917
  O       1.562890      2.380708      0.118322
  O       0.569756      0.993136      1.548943
  C       1.042964      2.133972      1.214738
  C       0.969891      3.205319      2.265048
  H       0.949855      4.192129      1.810241
  H       1.862616      3.146520      2.890320
  H       0.106219      3.072759      2.912165
  H       3.251632     -1.877581      1.068318
  H       1.871201     -2.925296     -1.028554
39
Coordinates from ORCA-job reaction4-IEIP_ts_guess_scan_11-3_orca E -1288.399384995037
  Ir      0.629521     -0.720773      0.413034
  C       0.124869     -2.834423      0.338894
  C      -0.008355     -2.373522      1.695342
  C       2.193128     -2.088058      1.046448
  C       1.467699     -2.662667     -0.057564
  C       1.277137     -1.939988      2.117670
  N      -1.053230      0.134294     -0.516866
  C      -2.317096      0.369567      0.197389
  C      -3.112918      1.551007     -0.338447
  H      -3.935059      1.759907      0.344422
  H      -3.561292      1.352817     -1.312957
  H      -2.507154      2.454896     -0.406645
  C      -3.145975     -0.910318      0.190772
  H      -2.022621      0.592166      1.223903
  H      -4.047147     -0.769531      0.786071
  H      -3.453182     -1.175425     -0.821671
  H      -2.601783     -1.752580      0.614725
  C      -0.902928      0.447663     -1.750650
  C       0.419061      0.252855     -2.271387
  H      -1.708154      0.864262     -2.347049
  C       1.466871      0.118524     -1.354801
  C       2.682973     -0.161673     -2.055328
  S       0.898387      0.055647     -3.883349
  C       2.522644     -0.221087     -3.404360
  H       1.575523      1.139099     -0.652048
  H       3.646204     -0.255228     -1.575110
  H       3.279453     -0.389426     -4.155353
  H      -0.663371     -3.249006     -0.272645
  H      -0.897192     -2.411886      2.306527
  H       1.504915     -1.500463      3.078546
  O       1.592542      2.369239      0.128804
  O       0.565510      0.995368      1.547886
  C       1.054383      2.131156      1.218066
  C       0.975615      3.206119      2.264104
  H       0.965759      4.191377      1.805500
  H       1.861388      3.145035      2.898899
  H       0.104272      3.080513      2.902205
  H       3.249892     -1.872319      1.079299
  H       1.879087     -2.923950     -1.021536
39
Coordinates from ORCA-job reaction4-IEIP_ts_guess_scan_11-3_orca E -1288.399379143202
  Ir      0.628146     -0.718243      0.412615
  C       0.127369     -2.833337      0.338781
  C      -0.011844     -2.370535      1.694117
  C       2.191691     -2.082613      1.053503
  C       1.471464     -2.659884     -0.052318
  C       1.271161     -1.934858      2.121014
  N      -1.055350      0.135948     -0.517067
  C      -2.320477      0.367106      0.196165
  C      -3.120441      1.545696     -0.339882
  H      -3.943705      1.751306      0.342585
  H      -3.567619      1.345683     -1.314586
  H      -2.518252      2.452005     -0.407676
  C      -3.145449     -0.915347      0.188028
  H      -2.027581      0.590415      1.223023
  H      -4.048375     -0.777359      0.781345
  H      -3.449700     -1.181247     -0.825106
  H      -2.599904     -1.756179      0.612987
  C      -0.904341      0.453620     -1.749603
  C       0.416874      0.259860     -2.271599
  H      -1.709569      0.872213     -2.344624
  C       1.465053      0.117064     -1.357319
  C       2.678959     -0.165141     -2.060485
  S       0.893323      0.067851     -3.885415
  C       2.516467     -0.218479     -3.409654
  H       1.584893      1.132815     -0.647377
  H       3.642546     -0.264107     -1.582080
  H       3.271818     -0.387060     -4.162055
  H      -0.657579     -3.250616     -0.275125
  H      -0.902536     -2.410429      2.302490
  H       1.494325     -1.493880      3.082317
  O       1.622049      2.358546      0.139686
  O       0.561171      0.998581      1.546694
  C       1.066531      2.128604      1.221829
  C       0.985201      3.206603      2.264549
  H       0.985337      4.190662      1.803182
  H       1.865203      3.142160      2.906950
  H       0.107551      3.088096      2.895268
  H       3.247932     -1.864911      1.090020
  H       1.887025     -2.921417     -1.014436
39
Coordinates from ORCA-job reaction4-IEIP_ts_guess_scan_11-3_orca E -1288.399373503649
  Ir      0.626060     -0.715470      0.412230
  C       0.130194     -2.832347      0.338469
  C      -0.014609     -2.368738      1.692973
  C       2.190306     -2.076068      1.059482
  C       1.475216     -2.656244     -0.047931
  C       1.265618     -1.929846      2.123812
  N      -1.058227      0.136786     -0.517604
  C      -2.324488      0.364745      0.194404
  C      -3.127384      1.541169     -0.341975
  H      -3.951821      1.744118      0.339832
  H      -3.573200      1.339867     -1.317054
  H      -2.527897      2.449310     -0.409065
  C      -3.146299     -0.919807      0.184933
  H      -2.033074      0.588457      1.221644
  H      -4.050356     -0.784397      0.777128
  H      -3.448583     -1.185886     -0.828753
  H      -2.599297     -1.759589      0.610074
  C      -0.906669      0.456534     -1.749389
  C       0.414147      0.264303     -2.272025
  H      -1.712126      0.875587     -2.343845
  C       1.462575      0.117324     -1.359073
  C       2.675156     -0.166489     -2.063924
  S       0.888489      0.073704     -3.886806
  C       2.511231     -0.217086     -3.413072
  H       1.591995      1.129223     -0.643905
  H       3.639081     -0.267717     -1.586665
  H       3.265683     -0.386040     -4.166291
  H      -0.651587     -3.252348     -0.277595
  H      -0.906973     -2.410726      2.298733
  H       1.484252     -1.487530      3.085550
  O       1.646644      2.350498      0.149044
  O       0.556847      1.002292      1.545074
  C       1.077350      2.126725      1.225292
  C       0.996881      3.206414      2.266452
  H       1.004480      4.189869      1.803799
  H       1.873651      3.138431      2.912877
  H       0.115601      3.093529      2.893076
  H       3.245917     -1.855913      1.099323
  H       1.894589     -2.917454     -1.008490
39
Coordinates from ORCA-job reaction4-IEIP_ts_guess_scan_11-3_orca E -1288.399375362726
  Ir      0.623824     -0.713591      0.412030
  C       0.132577     -2.831928      0.337977
  C      -0.016087     -2.368917      1.692210
  C       2.189289     -2.070507      1.063093
  C       1.478040     -2.652974     -0.045434
  C       1.261796     -1.926622      2.125512
  N      -1.061094      0.136284     -0.518413
  C      -2.327964      0.362992      0.192723
  C      -3.131528      1.538856     -0.343726
  H      -3.956713      1.740642      0.337507
  H      -3.576399      1.337494     -1.319231
  H      -2.532838      2.447568     -0.409925
  C      -3.148541     -0.922415      0.182353
  H      -2.037393      0.586481      1.220277
  H      -4.052619     -0.788556      0.774857
  H      -3.450707     -1.187752     -0.831573
  H      -2.600458     -1.762019      0.606486
  C      -0.909333      0.455348     -1.750198
  C       0.411668      0.264602     -2.272581
  H      -1.715154      0.873156     -2.345114
  C       1.460145      0.118927     -1.359493
  C       2.672790     -0.165211     -2.064535
  S       0.885563      0.071988     -3.887159
  C       2.508744     -0.216837     -3.413570
  H       1.594740      1.129339     -0.642921
  H       3.636893     -0.264944     -1.587304
  H       3.263210     -0.385786     -4.166778
  H      -0.646937     -3.253875     -0.279622
  H      -0.909652     -2.412839      2.296042
  H       1.477100     -1.483439      3.087606
  O       1.658749      2.348084      0.153213
  O       0.553777      1.005543      1.543058
  C       1.083572      2.126379      1.226878
  C       1.007369      3.205675      2.268938
  H       1.016484      4.189389      1.806834
  H       1.885250      3.135557      2.913637
  H       0.126899      3.094576      2.896979
  H       3.244350     -1.848160      1.105230
  H       1.899956     -2.913318     -1.005124
39
Coordinates from ORCA-job reaction4-IEIP_ts_guess_scan_11-3_orca E -1288.399379413409
  Ir      0.622256     -0.713407      0.412088
  C       0.133509     -2.832074      0.337641
  C      -0.017209     -2.370081      1.691976
  C       2.188385     -2.067978      1.065164
  C       1.479272     -2.651512     -0.044121
  C       1.259369     -1.925700      2.126636
  N      -1.062798      0.135074     -0.519036
  C      -2.329709      0.361735      0.192036
  C      -3.132547      1.538230     -0.343983
  H      -3.957858      1.739975      0.337127
  H      -3.577212      1.337765     -1.319766
  H      -2.533303      2.446617     -0.409411
  C      -3.150454     -0.923578      0.181035
  H      -2.039269      0.584562      1.219757
  H      -4.053848     -0.790368      0.774714
  H      -3.453710     -1.187725     -0.832876
  H      -2.601768     -1.763630      0.603554
  C      -0.911155      0.453066     -1.751082
  C       0.410325      0.263139     -2.272883
  H      -1.717245      0.869461     -2.346649
  C       1.458684      0.119825     -1.359050
  C       2.672060     -0.163304     -2.063657
  S       0.885047      0.069660     -3.886889
  C       2.508828     -0.215498     -3.412697
  H       1.594893      1.130649     -0.643818
  H       3.636072     -0.261222     -1.585850
  H       3.263788     -0.383309     -4.165662
  H      -0.644812     -3.254745     -0.280971
  H      -0.911669     -2.414700      2.294424
  H       1.472884     -1.482086      3.088927
  O       1.661389      2.349056      0.152629
  O       0.552409      1.007448      1.540617
  C       1.085653      2.126940      1.226076
  C       1.013369      3.205155      2.269594
  H       1.019303      4.189285      1.808289
  H       1.894643      3.135475      2.909705
  H       0.136133      3.092719      2.901868
  H       3.243175     -1.844628      1.108732
  H       1.902493     -2.911105     -1.003446
39
Coordinates from ORCA-job reaction4-IEIP_ts_guess_scan_11-3_orca E -1288.399378825708
  Ir      0.621572     -0.713691      0.412106
  C       0.134102     -2.832153      0.337007
  C      -0.018533     -2.370576      1.691363
  C       2.187713     -2.066948      1.067289
  C       1.480354     -2.650912     -0.042883
  C       1.257220     -1.925327      2.127671
  N      -1.063585      0.134470     -0.519226
  C      -2.330457      0.360730      0.192136
  C      -3.133009      1.537694     -0.343276
  H      -3.958291      1.739263      0.337935
  H      -3.577680      1.338018     -1.319216
  H      -2.533465      2.445921     -0.408122
  C      -3.151229     -0.924536      0.180357
  H      -2.040033      0.582994      1.219956
  H      -4.054181     -0.791901      0.774838
  H      -3.455209     -1.187750     -0.833574
  H      -2.602192     -1.764980      0.601641
  C      -0.912077      0.452905     -1.751224
  C       0.409691      0.263182     -2.272797
  H      -1.718239      0.868956     -2.346907
  C       1.458088      0.119786     -1.358875
  C       2.671577     -0.162864     -2.063571
  S       0.884685      0.070449     -3.886717
  C       2.508622     -0.214179     -3.412673
  H       1.596035      1.130488     -0.644120
  H       3.635505     -0.260905     -1.585608
  H       3.263620     -0.381194     -4.165775
  H      -0.643175     -3.255178     -0.282672
  H      -0.913940     -2.415248      2.292400
  H       1.469268     -1.481487      3.090179
  O       1.665413      2.348450      0.152762
  O       0.551396      1.008592      1.538503
  C       1.087582      2.127092      1.225287
  C       1.015987      3.205210      2.268882
  H       1.018899      4.189201      1.807182
  H       1.899357      3.137461      2.906299
  H       0.140751      3.091429      2.903625
  H       3.242366     -1.843246      1.112335
  H       1.904858     -2.910028     -1.001776
