39
Coordinates from ORCA-job reaction4-IEIP_ts_guess_scan_7-8_orca E -1288.400119184996
  Ir      0.609189     -0.719626      0.448187
  C       0.089364     -2.817495      0.337352
  C       0.040648     -2.358677      1.701632
  C       2.203070     -2.104955      0.933921
  C       1.402714     -2.645570     -0.139970
  C       1.366590     -1.961743      2.060209
  N      -1.049573      0.139330     -0.514010
  C      -2.320088      0.412534      0.177647
  C      -3.102204      1.571758     -0.421454
  H      -3.927243      1.822210      0.243988
  H      -3.546045      1.329447     -1.388008
  H      -2.487594      2.465618     -0.530046
  C      -3.154568     -0.862115      0.229175
  H      -2.032357      0.682574      1.194654
  H      -4.061388     -0.685676      0.805935
  H      -3.452156     -1.180177     -0.770868
  H      -2.619077     -1.681896      0.705716
  C      -0.882661      0.383796     -1.757413
  C       0.453250      0.192424     -2.256461
  H      -1.685525      0.750841     -2.390046
  C       1.534831      0.309423     -1.388726
  C       2.744341     -0.031075     -2.060621
  S       0.900679     -0.287582     -3.825792
  C       2.551824     -0.365889     -3.366073
  H       1.523739      1.255203     -0.600403
  H       3.723094      0.025782     -1.606760
  H       3.297990     -0.633633     -4.098909
  H      -0.742773     -3.206513     -0.231596
  H      -0.810394     -2.397916      2.365113
  H       1.659004     -1.545274      3.013748
  O       1.450562      2.403660      0.171539
  O       0.550645      0.962234      1.612095
  C       0.986486      2.123034      1.282257
  C       0.936425      3.161599      2.365636
  H       0.892948      4.161211      1.941648
  H       1.848615      3.093571      2.961655
  H       0.095534      3.001645      3.036536
  H       3.258103     -1.880530      0.893119
  H       1.753368     -2.882361     -1.133867
39
Coordinates from ORCA-job reaction4-IEIP_ts_guess_scan_7-8_orca E -1288.396369086331
  Ir      0.615420     -0.693252      0.436164
  C       0.129705     -2.798073      0.277172
  C       0.062563     -2.371707      1.650823
  C       2.226525     -2.064905      0.906990
  C       1.443950     -2.594889     -0.185029
  C       1.378256     -1.959939      2.028915
  N      -1.056318      0.156961     -0.517772
  C      -2.320901      0.440944      0.179195
  C      -3.111015      1.584989     -0.438158
  H      -3.931832      1.846969      0.228048
  H      -3.561101      1.320965     -1.396111
  H      -2.500013      2.478177     -0.570202
  C      -3.150822     -0.834802      0.264640
  H      -2.025001      0.733018      1.187752
  H      -4.053167     -0.649010      0.845447
  H      -3.456001     -1.174635     -0.725899
  H      -2.608539     -1.642757      0.753607
  C      -0.900265      0.369055     -1.769172
  C       0.434001      0.159886     -2.263726
  H      -1.708260      0.710163     -2.409673
  C       1.513379      0.351506     -1.405616
  C       2.722361     -0.046821     -2.047303
  S       0.882671     -0.436150     -3.791886
  C       2.531195     -0.489177     -3.320423
  H       1.510067      1.395959     -0.734736
  H       3.701436      0.051319     -1.601358
  H       3.278323     -0.815778     -4.027851
  H      -0.691208     -3.188054     -0.307223
  H      -0.792924     -2.440149      2.306050
  H       1.655903     -1.560069      2.993884
  O       1.528833      2.365363      0.255268
  O       0.514486      0.957127      1.638398
  C       0.994005      2.106271      1.340075
  C       0.913884      3.147069      2.419268
  H       0.922293      4.147136      1.994118
  H       1.789493      3.053722      3.064661
  H       0.033062      3.011609      3.042492
  H       3.278259     -1.823636      0.880431
  H       1.806666     -2.805215     -1.180522
39
Coordinates from ORCA-job reaction4-IEIP_ts_guess_scan_7-8_orca E -1288.400267476406
  Ir      0.609887     -0.715230      0.452538
  C       0.103653     -2.817855      0.328305
  C       0.044861     -2.370062      1.695530
  C       2.209392     -2.094200      0.939717
  C       1.418489     -2.633907     -0.141451
  C       1.365398     -1.964596      2.062741
  N      -1.049966      0.140124     -0.512364
  C      -2.318242      0.419756      0.179171
  C      -3.098330      1.576212     -0.427717
  H      -3.923262      1.832271      0.235703
  H      -3.541892      1.328132     -1.392968
  H      -2.482355      2.468441     -0.541956
  C      -3.154300     -0.853394      0.239586
  H      -2.028580      0.695630      1.194052
  H      -4.060126     -0.672094      0.816357
  H      -3.453535     -1.177249     -0.758100
  H      -2.619154     -1.670825      0.720615
  C      -0.884700      0.382482     -1.758162
  C       0.451170      0.193442     -2.262512
  H      -1.688439      0.752658     -2.387796
  C       1.534966      0.297318     -1.393803
  C       2.740289     -0.049723     -2.071945
  S       0.892076     -0.286953     -3.833244
  C       2.543342     -0.378402     -3.377613
  H       1.543222      1.263009     -0.614326
  H       3.720660     -0.000664     -1.620751
  H       3.286083     -0.648610     -4.112934
  H      -0.722760     -3.209203     -0.247374
  H      -0.808981     -2.420522      2.354482
  H       1.649908     -1.552587      3.020570
  O       1.444985      2.390752      0.184892
  O       0.532509      0.961223      1.624753
  C       0.976427      2.118062      1.296697
  C       0.925238      3.161761      2.374705
  H       0.887989      4.159671      1.946074
  H       1.834019      3.092680      2.975746
  H       0.080247      3.007993      3.041741
  H       3.263221     -1.863169      0.906440
  H       1.775962     -2.863183     -1.134658
39
Coordinates from ORCA-job reaction4-IEIP_ts_guess_scan_7-8_orca E -1288.398306452151
  Ir      0.597172     -0.724803      0.450632
  C       0.066963     -2.824395      0.381450
  C       0.019383     -2.343108      1.737328
  C       2.183140     -2.108922      0.965777
  C       1.381402     -2.667027     -0.097790
  C       1.345554     -1.942657      2.088626
  N      -1.065605      0.119804     -0.527947
  C      -2.338367      0.388344      0.160776
  C      -3.129236      1.537241     -0.446696
  H      -3.957343      1.785078      0.215940
  H      -3.569600      1.285038     -1.412305
  H      -2.522000      2.435551     -0.560132
  C      -3.162389     -0.892716      0.220569
  H      -2.053219      0.666977      1.176108
  H      -4.070484     -0.720064      0.796482
  H      -3.457498     -1.219547     -0.777363
  H      -2.619686     -1.704833      0.702177
  C      -0.902711      0.364001     -1.773701
  C       0.435854      0.202510     -2.275953
  H      -1.709484      0.730127     -2.401619
  C       1.509345      0.298666     -1.396109
  C       2.729447      0.022539     -2.079954
  S       0.897592     -0.206433     -3.860525
  C       2.549600     -0.257340     -3.399859
  H       1.474741      1.227353     -0.575438
  H       3.705294      0.084283     -1.620443
  H       3.304454     -0.470856     -4.141471
  H      -0.766288     -3.220541     -0.180951
  H      -0.831946     -2.368267      2.400950
  H       1.638777     -1.510402      3.034849
  O       1.687718      2.332421      0.233060
  O       0.541663      0.983018      1.588152
  C       1.087532      2.104726      1.291334
  C       1.007030      3.162093      2.353699
  H       1.080876      4.155041      1.918344
  H       1.847190      3.037322      3.039615
  H       0.093430      3.074928      2.937107
  H       3.239335     -1.890749      0.922442
  H       1.731734     -2.925210     -1.086420
39
Coordinates from ORCA-job reaction4-IEIP_ts_guess_scan_7-8_orca E -1288.400363219834
  Ir      0.604352     -0.715075      0.452935
  C       0.085307     -2.816430      0.355283
  C       0.030946     -2.353545      1.717320
  C       2.195778     -2.097623      0.955329
  C       1.400520     -2.645604     -0.118234
  C       1.353687     -1.950314      2.077723
  N      -1.053713      0.137339     -0.516029
  C      -2.328179      0.400102      0.171559
  C      -3.116579      1.555037     -0.427588
  H      -3.946525      1.797200      0.234829
  H      -3.554181      1.312027     -1.396812
  H      -2.508559      2.454036     -0.530903
  C      -3.153361     -0.880819      0.217134
  H      -2.045702      0.669124      1.190269
  H      -4.063015     -0.712836      0.791975
  H      -3.445790     -1.198200     -0.784630
  H      -2.612682     -1.697737      0.692801
  C      -0.884888      0.394790     -1.758632
  C       0.450040      0.212162     -2.265924
  H      -1.689400      0.766805     -2.385965
  C       1.533419      0.291247     -1.394807
  C       2.737929     -0.042223     -2.080655
  S       0.890331     -0.226602     -3.848744
  C       2.540626     -0.337208     -3.394352
  H       1.550075      1.249096     -0.602386
  H       3.718314     -0.006664     -1.628136
  H       3.283024     -0.590026     -4.136110
  H      -0.744102     -3.209552     -0.214835
  H      -0.822223     -2.391951      2.377896
  H       1.641741     -1.528836      3.030371
  O       1.523221      2.381937      0.195206
  O       0.534209      0.976576      1.610330
  C       1.015403      2.121203      1.293071
  C       0.962338      3.167311      2.368226
  H       0.962124      4.165260      1.938095
  H       1.852579      3.075778      2.993505
  H       0.096007      3.035873      3.012223
  H       3.250971     -1.873524      0.918422
  H       1.755330     -2.888942     -1.109019
39
Coordinates from ORCA-job reaction4-IEIP_ts_guess_scan_7-8_orca E -1288.400394710846
  Ir      0.609658     -0.720882      0.454617
  C       0.082191     -2.820337      0.360345
  C       0.026292     -2.355786      1.721502
  C       2.193951     -2.109173      0.964105
  C       1.399217     -2.655497     -0.110497
  C       1.349445     -1.956539      2.084069
  N      -1.048742      0.136528     -0.517229
  C      -2.322136      0.401519      0.171787
  C      -3.110196      1.557045     -0.426653
  H      -3.938855      1.800211      0.236963
  H      -3.549637      1.314166     -1.395090
  H      -2.501527      2.455450     -0.531141
  C      -3.149666     -0.877894      0.219292
  H      -2.038090      0.670978      1.190054
  H      -4.058698     -0.707639      0.794490
  H      -3.443320     -1.195804     -0.781945
  H      -2.610432     -1.695270      0.695540
  C      -0.882359      0.393678     -1.760364
  C       0.450924      0.211702     -2.269223
  H      -1.687722      0.766884     -2.385934
  C       1.532164      0.285718     -1.396258
  C       2.738410     -0.037817     -2.083699
  S       0.892194     -0.218957     -3.853794
  C       2.543324     -0.320268     -3.400722
  H       1.549018      1.250980     -0.608655
  H       3.718401     -0.001464     -1.630387
  H       3.287355     -0.562486     -4.144352
  H      -0.747282     -3.211032     -0.211286
  H      -0.828624     -2.389937      2.380050
  H       1.636822     -1.534553      3.036691
  O       1.493314      2.388203      0.181170
  O       0.540983      0.971099      1.610885
  C       1.002990      2.121036      1.286011
  C       0.958497      3.165750      2.362811
  H       0.940937      4.164064      1.933861
  H       1.860271      3.082360      2.972477
  H       0.104738      3.025056      3.021472
  H       3.250210     -1.889817      0.929751
  H       1.755346     -2.902085     -1.099972
39
Coordinates from ORCA-job reaction4-IEIP_ts_guess_scan_7-8_orca E -1288.400426432877
  Ir      0.611055     -0.723639      0.456352
  C       0.081229     -2.822001      0.363714
  C       0.022992     -2.357011      1.724391
  C       2.192489     -2.113139      0.970772
  C       1.399483     -2.659066     -0.105012
  C       1.345481     -1.958464      2.088836
  N      -1.045571      0.133833     -0.516289
  C      -2.318188      0.399861      0.173918
  C      -3.104980      1.557605     -0.421944
  H      -3.932582      1.800849      0.242930
  H      -3.545828      1.317070     -1.390330
  H      -2.495123      2.455317     -0.525473
  C      -3.148730     -0.877704      0.220129
  H      -2.033208      0.667628      1.192441
  H      -4.057601     -0.705785      0.795102
  H      -3.442800     -1.194036     -0.781488
  H      -2.611903     -1.696806      0.695892
  C      -0.880234      0.393549     -1.759055
  C       0.451905      0.213249     -2.271026
  H      -1.686272      0.769656     -2.382031
  C       1.533499      0.276407     -1.398103
  C       2.739677     -0.039836     -2.089032
  S       0.893537     -0.190424     -3.862328
  C       2.543564     -0.308309     -3.408996
  H       1.553096      1.244176     -0.609464
  H       3.719543     -0.012999     -1.634812
  H       3.286772     -0.546195     -4.154839
  H      -0.747450     -3.212013     -0.209500
  H      -0.833353     -2.389470      2.381152
  H       1.631386     -1.535805      3.041606
  O       1.494187      2.382878      0.177993
  O       0.542793      0.968059      1.610643
  C       1.004079      2.117017      1.283854
  C       0.951436      3.167208      2.354989
  H       0.929988      4.163308      1.921098
  H       1.852040      3.091198      2.967306
  H       0.096623      3.025506      3.012099
  H       3.249170     -1.895511      0.938817
  H       1.757166     -2.906970     -1.093573
39
Coordinates from ORCA-job reaction4-IEIP_ts_guess_scan_7-8_orca E -1288.400450540471
  Ir      0.608955     -0.724469      0.459166
  C       0.079646     -2.822361      0.367460
  C       0.018743     -2.357045      1.727829
  C       2.189776     -2.113208      0.977773
  C       1.398953     -2.659691     -0.099177
  C       1.340248     -1.957832      2.094107
  N      -1.045029      0.130874     -0.514511
  C      -2.318341      0.395362      0.175143
  C      -3.104115      1.555473     -0.417711
  H      -3.932033      1.796934      0.247431
  H      -3.544472      1.318292     -1.387130
  H      -2.493823      2.453287     -0.517983
  C      -3.150247     -0.881480      0.216477
  H      -2.034558      0.660082      1.194752
  H      -4.060118     -0.710057      0.790000
  H      -3.442626     -1.194846     -0.786566
  H      -2.615446     -1.702536      0.691159
  C      -0.879205      0.393464     -1.756706
  C       0.451987      0.213420     -2.271470
  H      -1.685984      0.770071     -2.378386
  C       1.534810      0.265343     -1.399076
  C       2.740700     -0.042817     -2.093889
  S       0.892780     -0.172484     -3.867287
  C       2.543686     -0.291697     -3.417679
  H       1.556713      1.234148     -0.608246
  H       3.720722     -0.023242     -1.639749
  H       3.286404     -0.519330     -4.167207
  H      -0.747843     -3.212637     -0.207336
  H      -0.838870     -2.388877      2.382931
  H       1.624369     -1.534338      3.047054
  O       1.508958      2.373299      0.179319
  O       0.542058      0.969613      1.611483
  C       1.008823      2.115156      1.282921
  C       0.954056      3.171266      2.348245
  H       0.938659      4.165162      1.909166
  H       1.851009      3.095137      2.965913
  H       0.095083      3.036024      3.001291
  H       3.246595     -1.895946      0.948148
  H       1.758347     -2.908325     -1.086917
39
Coordinates from ORCA-job reaction4-IEIP_ts_guess_scan_7-8_orca E -1288.400450481888
  Ir      0.609348     -0.725498      0.459875
  C       0.078398     -2.822940      0.369958
  C       0.016944     -2.356431      1.729970
  C       2.188938     -2.115225      0.981351
  C       1.398343     -2.662055     -0.095674
  C       1.338585     -1.958001      2.096784
  N      -1.045261      0.130566     -0.514660
  C      -2.319414      0.392060      0.174737
  C      -3.105471      1.553771     -0.414884
  H      -3.933989      1.792502      0.250513
  H      -3.545019      1.319586     -1.385385
  H      -2.495673      2.452294     -0.511817
  C      -3.150537     -0.885410      0.210754
  H      -2.036932      0.653573      1.195474
  H      -4.061267     -0.716433      0.783632
  H      -3.441408     -1.195542     -0.793736
  H      -2.615863     -1.707862      0.683289
  C      -0.879809      0.395601     -1.756539
  C       0.450770      0.217424     -2.272142
  H      -1.687391      0.771630     -2.377488
  C       1.533222      0.264691     -1.399152
  C       2.739089     -0.043255     -2.093389
  S       0.892587     -0.161427     -3.869441
  C       2.542410     -0.287391     -3.418256
  H       1.556222      1.233935     -0.607843
  H       3.718703     -0.027818     -1.638282
  H       3.285337     -0.513794     -4.167941
  H      -0.748911     -3.213030     -0.205269
  H      -0.841159     -2.386858      2.384481
  H       1.622473     -1.533826      3.049507
  O       1.514153      2.374605      0.177844
  O       0.545704      0.972291      1.610964
  C       1.012851      2.117338      1.281224
  C       0.958964      3.174532      2.345474
  H       0.943172      4.167927      1.905312
  H       1.856483      3.099115      2.962397
  H       0.100562      3.039914      2.999379
  H       3.246035     -1.899229      0.952605
  H       1.758180     -2.912139     -1.082884
39
Coordinates from ORCA-job reaction4-IEIP_ts_guess_scan_7-8_orca E -1288.400452356336
  Ir      0.609755     -0.725690      0.460196
  C       0.079776     -2.823161      0.368616
  C       0.016356     -2.357295      1.728817
  C       2.189339     -2.115016      0.983358
  C       1.400345     -2.661613     -0.094971
  C       1.337412     -1.958586      2.097636
  N      -1.044851      0.130640     -0.514361
  C      -2.318704      0.392527      0.175448
  C      -3.104127      1.555139     -0.413347
  H      -3.932210      1.794159      0.252479
  H      -3.544173      1.321762     -1.383816
  H      -2.493669      2.453216     -0.510118
  C      -3.150444     -0.884551      0.210701
  H      -2.035901      0.653289      1.196305
  H      -4.061044     -0.715561      0.783797
  H      -3.441570     -1.193822     -0.793984
  H      -2.616093     -1.707641      0.682512
  C      -0.880070      0.394942     -1.756501
  C       0.450143      0.216818     -2.272364
  H      -1.688032      0.770440     -2.377294
  C       1.532771      0.263940     -1.399554
  C       2.738508     -0.043199     -2.094093
  S       0.891555     -0.163698     -3.869515
  C       2.541466     -0.287790     -3.418891
  H       1.555578      1.233182     -0.608125
  H       3.718323     -0.026786     -1.639473
  H       3.284362     -0.513303     -4.168891
  H      -0.746500     -3.213369     -0.207991
  H      -0.842605     -2.388345      2.382180
  H       1.619901     -1.534695      3.050901
  O       1.514090      2.374003      0.177375
  O       0.545687      0.971566      1.610638
  C       1.013225      2.116464      1.280895
  C       0.957655      3.174266      2.344442
  H       0.940253      4.167311      1.903516
  H       1.855360      3.100763      2.961300
  H       0.099522      3.038730      2.998489
  H       3.246411     -1.898723      0.956253
  H       1.761571     -2.911122     -1.081824
