39
Generated by autodE on: 2023-08-15. E = -1288.398674 Ha
Ir    0.59171  -0.74485   0.50667
C     0.07068  -2.83689   0.40122
C    -0.05707  -2.36213   1.75507
C     2.15066  -2.12606   1.11352
C     1.41300  -2.67691   0.00280
C     1.24548  -1.96265   2.18404
N    -1.04206   0.10959  -0.49878
C    -2.33084   0.34115   0.17697
C    -3.10949   1.52466  -0.38017
H    -3.94704   1.73866   0.28222
H    -3.53537   1.32769  -1.36487
H    -2.49839   2.42574  -0.43600
C    -3.16153  -0.93647   0.14473
H    -2.07167   0.56537   1.21273
H    -4.08372  -0.79391   0.70662
H    -3.43253  -1.20363  -0.87757
H    -2.63533  -1.77937   0.58987
C    -0.87330   0.40080  -1.73580
C     0.44830   0.25649  -2.27589
H    -1.69099   0.77484  -2.34525
C     1.55309   0.24774  -1.43811
C     2.73704  -0.01469  -2.17847
S     0.84968   0.00341  -3.91514
C     2.50521  -0.15642  -3.51563
H     1.62960   1.22810  -0.55305
H     3.72850  -0.04040  -1.75037
H     3.22995  -0.32805  -4.29711
H    -0.72542  -3.23298  -0.21240
H    -0.94459  -2.39264   2.36922
H     1.48216  -1.53329   3.14738
O     1.66151   2.29386   0.19066
O     0.54173   0.99251   1.60864
C     1.08369   2.09531   1.27710
C     1.03853   3.19992   2.28944
H     0.97758   4.16892   1.80021
H     1.96412   3.18488   2.86796
H     0.20959   3.07501   2.98093
H     3.20763  -1.90901   1.13413
H     1.81926  -2.92511  -0.96679
