39
Coordinates from ORCA-job reaction4-IEIP_ts_guess_scan_5-8_orca E -1288.398370421167
  Ir      0.592203     -0.719401      0.455760
  C       0.041783     -2.804645      0.355477
  C       0.094586     -2.350996      1.722134
  C       2.199160     -2.127437      0.808388
  C       1.318274     -2.644053     -0.214622
  C       1.453402     -1.982103      1.992874
  N      -1.050618      0.154348     -0.520500
  C      -2.324471      0.457652      0.151825
  C      -3.126958      1.554257     -0.530659
  H      -3.955200      1.839180      0.116743
  H      -3.568738      1.233944     -1.475511
  H      -2.529615      2.449367     -0.706258
  C      -3.138889     -0.821220      0.306549
  H      -2.037337      0.809230      1.144128
  H      -4.055048     -0.607188      0.854986
  H      -3.419968     -1.231846     -0.664124
  H      -2.599319     -1.585510      0.863836
  C      -0.860527      0.375290     -1.763697
  C       0.486160      0.173594     -2.237521
  H      -1.650129      0.731758     -2.418877
  C       1.572003      0.411818     -1.402187
  C       2.784544      0.036284     -2.047999
  S       0.936081     -0.449227     -3.758789
  C       2.592563     -0.435927     -3.309842
  H       1.514208      1.324524     -0.603682
  H       3.764192      0.165327     -1.611043
  H       3.340274     -0.757271     -4.019288
  H      -0.836035     -3.172164     -0.156390
  H      -0.709013     -2.382994      2.442921
  H       1.820593     -1.582072      2.927153
  O       1.377976      2.431303      0.218926
  O       0.538777      0.936882      1.644845
  C       0.947192      2.115841      1.330500
  C       0.903040      3.121459      2.445276
  H       0.870075      4.133477      2.051087
  H       1.810958      3.026350      3.044226
  H       0.058129      2.950100      3.108699
  H       3.248399     -1.902961      0.687666
  H       1.596660     -2.875782     -1.232266
39
Coordinates from ORCA-job reaction4-IEIP_ts_guess_scan_5-8_orca E -1288.395346788085
  Ir      0.597828     -0.697569      0.443459
  C       0.074861     -2.789479      0.305820
  C       0.112054     -2.359802      1.680360
  C       2.219754     -2.091980      0.785888
  C       1.353133     -2.602700     -0.252019
  C       1.463334     -1.976353      1.966980
  N      -1.058134      0.168466     -0.524613
  C      -2.326864      0.479371      0.152571
  C      -3.136976      1.562014     -0.542963
  H      -3.961788      1.855670      0.104900
  H      -3.583781      1.224299     -1.479374
  H      -2.543327      2.455614     -0.737773
  C      -3.135927     -0.799214      0.334781
  H      -2.032901      0.848150      1.136602
  H      -4.048237     -0.579092      0.887183
  H      -3.423577     -1.226468     -0.626736
  H      -2.589137     -1.552582      0.899924
  C      -0.878109      0.363115     -1.774340
  C       0.467715      0.148862     -2.243940
  H      -1.672345      0.697834     -2.435321
  C       1.549582      0.446021     -1.421480
  C       2.763178      0.024669     -2.037950
  S       0.921100     -0.570316     -3.720456
  C       2.574901     -0.535638     -3.263593
  H       1.496563      1.447830     -0.721521
  H       3.742249      0.188788     -1.611684
  H       3.324975     -0.903873     -3.947169
  H      -0.794226     -3.160012     -0.218589
  H      -0.695870     -2.415746      2.394727
  H       1.818355     -1.587578      2.910648
  O       1.471173      2.392689      0.291790
  O       0.508160      0.932866      1.663015
  C       0.965346      2.098796      1.378298
  C       0.886433      3.108282      2.487434
  H       0.906968      4.119897      2.091238
  H       1.754572      2.987543      3.138442
  H      -0.000558      2.963891      3.100284
  H       3.266975     -1.852796      0.677046
  H       1.641917     -2.814278     -1.271130
39
Coordinates from ORCA-job reaction4-IEIP_ts_guess_scan_5-8_orca E -1288.398485184727
  Ir      0.594677     -0.716636      0.459206
  C       0.053127     -2.805775      0.349247
  C       0.096290     -2.359666      1.718354
  C       2.204901     -2.120394      0.816683
  C       1.332235     -2.636729     -0.213313
  C       1.451154     -1.984085      1.997625
  N      -1.049643      0.155876     -0.518251
  C      -2.321539      0.462631      0.154337
  C      -3.121964      1.558351     -0.531889
  H      -3.950386      1.846434      0.113860
  H      -3.563070      1.235663     -1.476284
  H      -2.523194      2.452074     -0.709760
  C      -3.136917     -0.815113      0.312561
  H      -2.032915      0.816098      1.145520
  H      -4.052081     -0.599247      0.861894
  H      -3.419685     -1.227272     -0.656965
  H      -2.596887     -1.578746      0.870414
  C      -0.861226      0.378515     -1.763177
  C       0.485059      0.177863     -2.243646
  H      -1.651918      0.739643     -2.414436
  C       1.574608      0.400940     -1.406911
  C       2.782056      0.018506     -2.060499
  S       0.925817     -0.445316     -3.767073
  C       2.583440     -0.446930     -3.323067
  H       1.536957      1.334361     -0.616860
  H       3.764283      0.139697     -1.627146
  H       3.326780     -0.770148     -4.036142
  H      -0.820025     -3.175431     -0.169010
  H      -0.710691     -2.400034      2.434804
  H       1.811110     -1.586723      2.935828
  O       1.369153      2.420224      0.227502
  O       0.523951      0.935354      1.655059
  C       0.938059      2.111071      1.341649
  C       0.889934      3.122416      2.450745
  H       0.858430      4.132520      2.051445
  H       1.795606      3.030300      3.053482
  H       0.042530      2.954204      3.111635
  H       3.253966     -1.891649      0.703456
  H       1.617386     -2.863656     -1.230140
39
Coordinates from ORCA-job reaction4-IEIP_ts_guess_scan_5-8_orca E -1288.396539154499
  Ir      0.581234     -0.724787      0.460978
  C       0.019852     -2.810810      0.401567
  C       0.070140     -2.333602      1.759548
  C       2.178781     -2.134533      0.848585
  C       1.299053     -2.667255     -0.166864
  C       1.428704     -1.963767      2.027250
  N      -1.063879      0.134321     -0.533631
  C      -2.340030      0.433325      0.135549
  C      -3.148905      1.521231     -0.553351
  H      -3.980329      1.803577      0.091101
  H      -3.586625      1.193284     -1.497471
  H      -2.557418      2.419601     -0.732183
  C      -3.145553     -0.850508      0.295523
  H      -2.056143      0.791063      1.126498
  H      -4.062933     -0.640938      0.843646
  H      -3.424082     -1.266727     -0.673486
  H      -2.599814     -1.608724      0.855194
  C      -0.878236      0.355519     -1.779079
  C       0.470597      0.183535     -2.259585
  H      -1.672042      0.713557     -2.428045
  C       1.549696      0.395835     -1.409295
  C       2.770758      0.086826     -2.075770
  S       0.931660     -0.361451     -3.806363
  C       2.588941     -0.323531     -3.360305
  H       1.470637      1.276550     -0.567644
  H       3.747600      0.216519     -1.632689
  H       3.343297     -0.588216     -4.085882
  H      -0.857830     -3.184245     -0.106262
  H      -0.735630     -2.349929      2.478308
  H       1.794181     -1.547847      2.955236
  O       1.617111      2.365066      0.277272
  O       0.528041      0.957393      1.623578
  C       1.045480      2.099929      1.339218
  C       0.966166      3.123448      2.434951
  H       1.048396      4.128890      2.031168
  H       1.800197      2.971240      3.122918
  H       0.048784      3.024806      3.011065
  H       3.229755     -1.918510      0.728070
  H       1.579757     -2.920945     -1.178580
39
Coordinates from ORCA-job reaction4-IEIP_ts_guess_scan_5-8_orca E -1288.398564737960
  Ir      0.588580     -0.714446      0.461055
  C       0.040057     -2.803022      0.372461
  C       0.083429     -2.344188      1.737001
  C       2.193460     -2.119716      0.834671
  C       1.320134     -2.643635     -0.190730
  C       1.438769     -1.969299      2.013405
  N      -1.053831      0.152327     -0.521898
  C      -2.331349      0.445121      0.147199
  C      -3.138158      1.539774     -0.533378
  H      -3.971130      1.816278      0.111598
  H      -3.573554      1.220886     -1.481680
  H      -2.546016      2.439633     -0.702260
  C      -3.137964     -0.839746      0.292998
  H      -2.049601      0.793293      1.142207
  H      -4.056518     -0.634993      0.840985
  H      -3.414460     -1.246510     -0.680600
  H      -2.593926     -1.603558      0.846615
  C      -0.862843      0.386147     -1.764599
  C       0.482572      0.192403     -2.249117
  H      -1.654620      0.748675     -2.413543
  C       1.573311      0.392645     -1.408782
  C       2.779291      0.023517     -2.072109
  S       0.920926     -0.388904     -3.789358
  C       2.578619     -0.408963     -3.346047
  H       1.542855      1.312885     -0.601314
  H       3.762056      0.130628     -1.636206
  H       3.320627     -0.716007     -4.067562
  H      -0.833827     -3.174988     -0.142888
  H      -0.724185     -2.375334      2.453160
  H       1.799045     -1.563618      2.947930
  O       1.459020      2.407280      0.244545
  O       0.519680      0.950355      1.643486
  C       0.976823      2.112987      1.342116
  C       0.923117      3.127269      2.447961
  H       0.935741      4.137149      2.047105
  H       1.805019      3.008635      3.080559
  H       0.049390      2.985960      3.080230
  H       3.243480     -1.895876      0.720449
  H       1.605350     -2.881853     -1.204925
39
Coordinates from ORCA-job reaction4-IEIP_ts_guess_scan_5-8_orca E -1288.398596829896
  Ir      0.595435     -0.721833      0.461357
  C       0.036401     -2.808154      0.376746
  C       0.078849     -2.347340      1.740386
  C       2.192083     -2.134782      0.842311
  C       1.318467     -2.656240     -0.184001
  C       1.435167     -1.978006      2.018851
  N      -1.048052      0.151274     -0.523443
  C      -2.324125      0.446578      0.147746
  C      -3.129406      1.544197     -0.529810
  H      -3.960698      1.821576      0.116944
  H      -3.567139      1.227835     -1.477872
  H      -2.535527      2.442986     -0.698150
  C      -3.134576     -0.836018      0.293047
  H      -2.040206      0.792830      1.142880
  H      -4.051933     -0.629050      0.842238
  H      -3.413386     -1.240889     -0.680678
  H      -2.592402     -1.602032      0.845208
  C      -0.860505      0.383092     -1.767217
  C       0.483541      0.191473     -2.252325
  H      -1.653504      0.745325     -2.414849
  C       1.570575      0.392676     -1.409100
  C       2.779372      0.031426     -2.071343
  S       0.925102     -0.390385     -3.791125
  C       2.582831     -0.396261     -3.347848
  H       1.537049      1.324738     -0.612203
  H       3.761009      0.144101     -1.634287
  H       3.327642     -0.695091     -4.069887
  H      -0.838020     -3.176894     -0.139955
  H      -0.730497     -2.373421      2.454788
  H       1.795225     -1.572172      2.953391
  O       1.410200      2.422217      0.224249
  O       0.531046      0.944773      1.643253
  C       0.960146      2.115455      1.332585
  C       0.919783      3.125722      2.442471
  H       0.904287      4.136833      2.044826
  H       1.820597      3.020199      3.050242
  H       0.066214      2.967649      3.097891
  H       3.243611     -1.917026      0.730411
  H       1.604712     -2.898168     -1.196988
39
Coordinates from ORCA-job reaction4-IEIP_ts_guess_scan_5-8_orca E -1288.398625331018
  Ir      0.595377     -0.722113      0.462784
  C       0.038069     -2.808437      0.377652
  C       0.077115     -2.347694      1.741242
  C       2.192218     -2.133479      0.847465
  C       1.321302     -2.655647     -0.180573
  C       1.432327     -1.977012      2.022337
  N      -1.046614      0.148970     -0.522378
  C      -2.322167      0.444654      0.149697
  C      -3.125750      1.545098     -0.525270
  H      -3.956285      1.822569      0.122411
  H      -3.564437      1.231484     -1.473795
  H      -2.530344      2.443179     -0.691969
  C      -3.135280     -0.836586      0.292558
  H      -2.037583      0.788507      1.145494
  H      -4.052351     -0.628711      0.841883
  H      -3.414697     -1.239162     -0.681944
  H      -2.594941     -1.604713      0.843483
  C      -0.859976      0.382588     -1.765954
  C       0.483352      0.192701     -2.254138
  H      -1.653872      0.746393     -2.411632
  C       1.571619      0.386219     -1.410764
  C       2.779628      0.027622     -2.075922
  S       0.924033     -0.368858     -3.800465
  C       2.581188     -0.391436     -3.355082
  H       1.539867      1.316615     -0.610141
  H       3.761535      0.131612     -1.637356
  H       3.324676     -0.689826     -4.078679
  H      -0.834882     -3.177866     -0.141014
  H      -0.733831     -2.374053      2.453795
  H       1.789958     -1.570542      2.957537
  O       1.418828      2.415668      0.225105
  O       0.529691      0.943538      1.642889
  C       0.963330      2.112062      1.332378
  C       0.914736      3.126938      2.437799
  H       0.900923      4.136471      2.036114
  H       1.811756      3.024562      3.051695
  H       0.057093      2.970692      3.088337
  H       3.243906     -1.915233      0.738052
  H       1.609852     -2.897581     -1.192895
39
Coordinates from ORCA-job reaction4-IEIP_ts_guess_scan_5-8_orca E -1288.398649665981
  Ir      0.593547     -0.722031      0.467045
  C       0.038814     -2.808492      0.381009
  C       0.071463     -2.347443      1.744491
  C       2.190362     -2.131179      0.859307
  C       1.324440     -2.654754     -0.172049
  C       1.424808     -1.974841      2.030833
  N      -1.045463      0.145968     -0.520531
  C      -2.321678      0.439652      0.151356
  C      -3.123318      1.544226     -0.519314
  H      -3.954004      1.819793      0.128992
  H      -3.561688      1.235435     -1.469543
  H      -2.526610      2.442268     -0.681532
  C      -3.136891     -0.841031      0.287378
  H      -2.038164      0.778750      1.149051
  H      -4.054603     -0.634147      0.835994
  H      -3.415213     -1.239026     -0.689312
  H      -2.598743     -1.612423      0.835900
  C      -0.859311      0.382570     -1.763779
  C       0.482595      0.193732     -2.256664
  H      -1.654849      0.746496     -2.407368
  C       1.573034      0.373101     -1.412563
  C       2.779756      0.022506     -2.084129
  S       0.920420     -0.347414     -3.810798
  C       2.578706     -0.374592     -3.369992
  H       1.544263      1.301433     -0.606579
  H       3.762365      0.117184     -1.645145
  H       3.320618     -0.662637     -4.099385
  H      -0.831425     -3.179070     -0.141410
  H      -0.742604     -2.373894      2.453441
  H       1.777911     -1.567218      2.967272
  O       1.436452      2.402889      0.227314
  O       0.526738      0.944672      1.644511
  C       0.967909      2.109023      1.332113
  C       0.916602      3.130868      2.431131
  H       0.910855      4.138079      2.023536
  H       1.808785      3.027525      3.051917
  H       0.053593      2.982773      3.076460
  H       3.242438     -1.912436      0.754745
  H       1.617460     -2.897122     -1.182964
39
Coordinates from ORCA-job reaction4-IEIP_ts_guess_scan_5-8_orca E -1288.398656118706
  Ir      0.594496     -0.724125      0.469990
  C       0.037320     -2.809984      0.386163
  C       0.065076     -2.346717      1.748938
  C       2.188110     -2.134735      0.871746
  C       1.325534     -2.659211     -0.161983
  C       1.417612     -1.975038      2.039749
  N      -1.043679      0.144099     -0.520259
  C      -2.320971      0.433146      0.152138
  C      -3.121746      1.543166     -0.510837
  H      -3.952764      1.814155      0.138981
  H      -3.559654      1.241642     -1.463577
  H      -2.524547      2.442116     -0.665993
  C      -3.136935     -0.848180      0.277184
  H      -2.039073      0.764598      1.152805
  H      -4.055478     -0.645012      0.825805
  H      -3.413787     -1.238705     -0.702930
  H      -2.600084     -1.624065      0.820666
  C      -0.859117      0.385010     -1.763216
  C       0.481045      0.199818     -2.260238
  H      -1.656841      0.748624     -2.404221
  C       1.571744      0.365645     -1.413895
  C       2.777882      0.019732     -2.088060
  S       0.918650     -0.319902     -3.821536
  C       2.576078     -0.360220     -3.379239
  H       1.545547      1.294881     -0.606059
  H       3.760399      0.104481     -1.646957
  H       3.317517     -0.641712     -4.111639
  H      -0.831133     -3.180536     -0.139288
  H      -0.751951     -2.370507      2.454556
  H       1.767435     -1.565885      2.976780
  O       1.442925      2.400486      0.222981
  O       0.531532      0.947615      1.644805
  C       0.973265      2.110366      1.328679
  C       0.921985      3.136899      2.423264
  H       0.914505      4.142373      2.011487
  H       1.815175      3.037200      3.043180
  H       0.060011      2.990355      3.070320
  H       3.241101     -1.918402      0.771617
  H       1.622184     -2.904281     -1.171165
39
Coordinates from ORCA-job reaction4-IEIP_ts_guess_scan_5-8_orca E -1288.398659368863
  Ir      0.595686     -0.725811      0.471434
  C       0.038654     -2.811705      0.386622
  C       0.061396     -2.347857      1.749361
  C       2.187860     -2.136442      0.880107
  C       1.328965     -2.661298     -0.156555
  C       1.412863     -1.976097      2.045018
  N      -1.041988      0.142977     -0.519842
  C      -2.319034      0.431327      0.153643
  C      -3.118009      1.545627     -0.504467
  H      -3.948240      1.815502      0.146812
  H      -3.556867      1.248761     -1.458206
  H      -2.519077      2.443962     -0.656267
  C      -3.137034     -0.849284      0.272781
  H      -2.036945      0.757966      1.155857
  H      -4.055434     -0.647217      0.822094
  H      -3.414230     -1.235032     -0.709129
  H      -2.601504     -1.628487      0.812749
  C      -0.859123      0.384120     -1.763100
  C       0.479825      0.200278     -2.261905
  H      -1.658207      0.746978     -2.402847
  C       1.570688      0.361581     -1.414986
  C       2.776563      0.019654     -2.090917
  S       0.916865     -0.314285     -3.825150
  C       2.574174     -0.354644     -3.383874
  H       1.545004      1.292898     -0.607989
  H       3.759333      0.103525     -1.650237
  H       3.315540     -0.631506     -4.118111
  H      -0.827640     -3.182695     -0.142036
  H      -0.758306     -2.371144      2.451901
  H       1.759207     -1.566410      2.983114
  O       1.439827      2.400299      0.218332
  O       0.533709      0.947218      1.644190
  C       0.973486      2.110042      1.325581
  C       0.921754      3.138338      2.418378
  H       0.909164      4.143011      2.004758
  H       1.817356      3.043140      3.035481
  H       0.062438      2.989628      3.068433
  H       3.241369     -1.920793      0.784223
  H       1.629280     -2.906935     -1.164511
39
Coordinates from ORCA-job reaction4-IEIP_ts_guess_scan_5-8_orca E -1288.398658894425
  Ir      0.596073     -0.726192      0.472228
  C       0.041673     -2.812876      0.385217
  C       0.058105     -2.348651      1.748075
  C       2.188210     -2.135169      0.888200
  C       1.334180     -2.661110     -0.152008
  C       1.407906     -1.975579      2.049603
  N      -1.041601      0.142038     -0.519241
  C      -2.318577      0.429110      0.155118
  C      -3.115480      1.547874     -0.498033
  H      -3.945210      1.816428      0.154419
  H      -3.554789      1.255938     -1.453059
  H      -2.514664      2.445565     -0.645964
  C      -3.138197     -0.851133      0.267183
  H      -2.036732      0.750372      1.159121
  H      -4.056553     -0.651099      0.817355
  H      -3.415550     -1.231291     -0.716866
  H      -2.603589     -1.633949      0.802806
  C      -0.860266      0.382844     -1.762857
  C       0.477886      0.200287     -2.262778
  H      -1.660621      0.744542     -2.401705
  C       1.569209      0.359632     -1.416058
  C       2.774610      0.018833     -2.092731
  S       0.914529     -0.311437     -3.827278
  C       2.571470     -0.353290     -3.386397
  H       1.544138      1.292345     -0.609852
  H       3.757681      0.102024     -1.652598
  H       3.312597     -0.628631     -4.121465
  H      -0.821673     -3.185311     -0.147199
  H      -0.764615     -2.372643      2.447071
  H       1.749735     -1.565308      2.989106
  O       1.437183      2.401276      0.214185
  O       0.534278      0.948352      1.642911
  C       0.971711      2.111562      1.321964
  C       0.924483      3.139629      2.415127
  H       0.908819      4.144275      2.001524
  H       1.823348      3.045444      3.027630
  H       0.068623      2.989925      3.069447
  H       3.242024     -1.918967      0.797225
  H       1.639020     -2.906472     -1.158682
39
Coordinates from ORCA-job reaction4-IEIP_ts_guess_scan_5-8_orca E -1288.398661298326
  Ir      0.596457     -0.726105      0.472885
  C       0.046635     -2.814173      0.381727
  C       0.054426     -2.350010      1.744925
  C       2.189206     -2.132302      0.897743
  C       1.341969     -2.659643     -0.147378
  C       1.401752     -1.974851      2.054554
  N      -1.041710      0.141344     -0.517600
  C      -2.318614      0.426469      0.157822
  C      -3.112302      1.551477     -0.488606
  H      -3.941597      1.818225      0.165126
  H      -3.551791      1.266481     -1.445611
  H      -2.508708      2.448195     -0.630864
  C      -3.140373     -0.853292      0.259670
  H      -2.037266      0.740053      1.164318
  H      -4.058526     -0.656522      0.811390
  H      -3.418174     -1.225156     -0.727424
  H      -2.606698     -1.641317      0.788605
  C      -0.862179      0.381509     -1.761692
  C       0.475193      0.199426     -2.262958
  H      -1.663985      0.741815     -2.399558
  C       1.567793      0.357681     -1.417497
  C       2.772105      0.016607     -2.095443
  S       0.910224     -0.312637     -3.828130
  C       2.567254     -0.354011     -3.389445
  H       1.544243      1.291002     -0.611700
  H       3.755861      0.099410     -1.656788
  H       3.307577     -0.628678     -4.125599
  H      -0.812593     -3.188792     -0.155779
  H      -0.772247     -2.375797      2.439195
  H       1.737285     -1.564154      2.996152
  O       1.439679      2.400995      0.211213
  O       0.535175      0.950335      1.641399
  C       0.974342      2.112740      1.319305
  C       0.926383      3.142278      2.411057
  H       0.907371      4.146221      1.995828
  H       1.826775      3.051541      3.021823
  H       0.072183      2.991332      3.067217
  H       3.243272     -1.914743      0.813350
  H       1.652973     -2.903766     -1.152494
39
Coordinates from ORCA-job reaction4-IEIP_ts_guess_scan_5-8_orca E -1288.398664504322
  Ir      0.597391     -0.725377      0.473457
  C       0.055610     -2.815715      0.374845
  C       0.049015     -2.352347      1.738589
  C       2.191220     -2.126488      0.912300
  C       1.355508     -2.656078     -0.140911
  C       1.391840     -1.973317      2.061615
  N      -1.042118      0.140478     -0.514777
  C      -2.318721      0.423102      0.162266
  C      -3.107394      1.557325     -0.474299
  H      -3.936124      1.821657      0.181119
  H      -3.547016      1.282591     -1.434189
  H      -2.499532      2.452418     -0.608168
  C      -3.143970     -0.855542      0.249505
  H      -2.037793      0.725422      1.172215
  H      -4.061119     -0.663636      0.804607
  H      -3.423628     -1.214577     -0.741813
  H      -2.611174     -1.651492      0.767482
  C      -0.865238      0.379238     -1.759598
  C       0.471324      0.196949     -2.262994
  H      -1.668817      0.738159     -2.396049
  C       1.566045      0.355221     -1.420124
  C       2.768679      0.013634     -2.100723
  S       0.903092     -0.316289     -3.829000
  C       2.560659     -0.358197     -3.393961
  H       1.544769      1.288326     -0.614314
  H       3.753619      0.096427     -1.664768
  H       3.299355     -0.633999     -4.131335
  H      -0.796787     -3.193870     -0.170981
  H      -0.784039     -2.381784      2.425061
  H       1.716674     -1.562089      3.006754
  O       1.443549      2.399439      0.207504
  O       0.535767      0.952669      1.639023
  C       0.976993      2.113974      1.315629
  C       0.928105      3.145532      2.405517
  H       0.904273      4.148531      1.988160
  H       1.830773      3.059723      3.013631
  H       0.076357      2.992811      3.064380
  H       3.245503     -1.906245      0.838626
  H       1.676721     -2.897393     -1.143541
39
Coordinates from ORCA-job reaction4-IEIP_ts_guess_scan_5-8_orca E -1288.398665417699
  Ir      0.598768     -0.725099      0.473505
  C       0.063051     -2.817006      0.368903
  C       0.043965     -2.354381      1.732907
  C       2.192610     -2.122126      0.924849
  C       1.367012     -2.653702     -0.135187
  C       1.382648     -1.972110      2.067486
  N      -1.042197      0.139458     -0.512397
  C      -2.318427      0.420106      0.166128
  C      -3.103106      1.561797     -0.462106
  H      -3.931578      1.823819      0.194561
  H      -3.542611      1.295694     -1.424441
  H      -2.492009      2.455717     -0.588724
  C      -3.146809     -0.857267      0.241782
  H      -2.037602      0.713285      1.178735
  H      -4.062426     -0.669355      0.800751
  H      -3.429180     -1.205165     -0.752738
  H      -2.614389     -1.659967      0.749725
  C      -0.867499      0.377677     -1.757595
  C       0.468450      0.194947     -2.263241
  H      -1.672243      0.736387     -2.392719
  C       1.564770      0.353437     -1.422605
  C       2.766055      0.010813     -2.105427
  S       0.897046     -0.318040     -3.830149
  C       2.555500     -0.361061     -3.398172
  H       1.545685      1.286097     -0.616582
  H       3.751854      0.092847     -1.671288
  H       3.292779     -0.637785     -4.136607
  H      -0.783555     -3.197800     -0.184042
  H      -0.794626     -2.386651      2.412487
  H       1.698037     -1.560198      3.015553
  O       1.446854      2.398216      0.204167
  O       0.537342      0.954216      1.636900
  C       0.979069      2.114910      1.312309
  C       0.928835      3.148395      2.400344
  H       0.899985      4.150487      1.981069
  H       1.833676      3.067618      3.005911
  H       0.079473      2.993680      3.061768
  H       3.247080     -1.900021      0.860459
  H       1.697084     -2.892681     -1.135538
39
Coordinates from ORCA-job reaction4-IEIP_ts_guess_scan_5-8_orca E -1288.398665375276
  Ir      0.600402     -0.725512      0.473564
  C       0.068584     -2.818280      0.364385
  C       0.039428     -2.356421      1.728517
  C       2.193357     -2.119831      0.935350
  C       1.375967     -2.652864     -0.130156
  C       1.374673     -1.971741      2.072390
  N      -1.041937      0.138388     -0.510756
  C      -2.317748      0.417866      0.169019
  C      -3.099672      1.564870     -0.453047
  H      -3.928143      1.824870      0.204427
  H      -3.538904      1.305196     -1.417237
  H      -2.486532      2.458151     -0.574089
  C      -3.148704     -0.858271      0.236757
  H      -2.036768      0.704675      1.183381
  H      -4.062588     -0.673053      0.799423
  H      -3.434076     -1.197695     -0.759834
  H      -2.616444     -1.666118      0.736701
  C      -0.868863      0.376804     -1.756053
  C       0.466519      0.193549     -2.263828
  H      -1.674248      0.736053     -2.390094
  C       1.563873      0.351640     -1.424619
  C       2.764251      0.009462     -2.109734
  S       0.892318     -0.318374     -3.831560
  C       2.551793     -0.362137     -3.402103
  H       1.546379      1.284257     -0.618487
  H       3.750634      0.091106     -1.676854
  H       3.287941     -0.638795     -4.141667
  H      -0.773496     -3.200668     -0.194334
  H      -0.803688     -2.390530      2.402392
  H       1.682403     -1.559170      3.022715
  O       1.448691      2.397202      0.201278
  O       0.539769      0.954801      1.635721
  C       0.980420      2.115353      1.309683
  C       0.929066      3.150694      2.395885
  H       0.895073      4.151879      1.974802
  H       1.836157      3.074865      2.998718
  H       0.082250      2.993965      3.060067
  H       3.248050     -1.896839      0.878567
  H       1.713186     -2.890153     -1.128551
39
Coordinates from ORCA-job reaction4-IEIP_ts_guess_scan_5-8_orca E -1288.398665110614
  Ir      0.601358     -0.726043      0.473479
  C       0.070732     -2.818904      0.362163
  C       0.036786     -2.357587      1.726374
  C       2.193320     -2.119488      0.940439
  C       1.379854     -2.653067     -0.127715
  C       1.370380     -1.971916      2.074667
  N      -1.041595      0.137778     -0.510295
  C      -2.317077      0.417024      0.170204
  C      -3.098378      1.565711     -0.449571
  H      -3.926973      1.824566      0.208205
  H      -3.537431      1.308379     -1.414462
  H      -2.484925      2.459067     -0.568446
  C      -3.149009     -0.858574      0.235710
  H      -2.035752      0.701938      1.185012
  H      -4.061716     -0.674193      0.800549
  H      -3.436385     -1.194780     -0.761390
  H      -2.616579     -1.668424      0.732233
  C      -0.869187      0.376738     -1.755497
  C       0.465853      0.193323     -2.264418
  H      -1.674648      0.736704     -2.389052
  C       1.563492      0.350768     -1.425576
  C       2.763540      0.008796     -2.111575
  S       0.890456     -0.317318     -3.832623
  C       2.550508     -0.361535     -3.404120
  H       1.546726      1.283665     -0.619508
  H       3.750022      0.089859     -1.678799
  H       3.286175     -0.637612     -4.144366
  H      -0.769305     -3.201642     -0.199384
  H      -0.808561     -2.392200      2.397424
  H       1.674491     -1.559004      3.026023
  O       1.448959      2.397045      0.199657
  O       0.541802      0.954634      1.635346
  C       0.981004      2.115381      1.308350
  C       0.929143      3.151654      2.393607
  H       0.891816      4.152323      1.971578
  H       1.837728      3.078800      2.994553
  H       0.084080      2.993538      3.059678
  H       3.248203     -1.896540      0.887417
  H       1.720463     -2.889674     -1.125130
39
Coordinates from ORCA-job reaction4-IEIP_ts_guess_scan_5-8_orca E -1288.398665517487
  Ir      0.601508     -0.726321      0.473430
  C       0.070914     -2.819075      0.361483
  C       0.035997     -2.358098      1.725801
  C       2.193095     -2.119784      0.941397
  C       1.380433     -2.653341     -0.127383
  C       1.369265     -1.972282      2.075010
  N      -1.041528      0.137676     -0.510419
  C      -2.316869      0.417165      0.170237
  C      -3.098563      1.565412     -0.449828
  H      -3.927308      1.823986      0.207874
  H      -3.537484      1.307814     -1.414709
  H      -2.485549      2.459064     -0.568768
  C      -3.148728     -0.858425      0.236604
  H      -2.035309      0.702735      1.184808
  H      -4.061043     -0.673815      0.802004
  H      -3.436759     -1.194854     -0.760227
  H      -2.616103     -1.668212      0.733000
  C      -0.869082      0.376969     -1.755524
  C       0.465872      0.193471     -2.264609
  H      -1.674374      0.737292     -2.389100
  C       1.563481      0.350590     -1.425649
  C       2.763538      0.009031     -2.111832
  S       0.890368     -0.316894     -3.832850
  C       2.550536     -0.361069     -3.404427
  H       1.546657      1.283740     -0.619721
  H       3.749960      0.090176     -1.678927
  H       3.286098     -0.636794     -4.144905
  H      -0.768758     -3.201660     -0.200715
  H      -0.809843     -2.392671      2.396229
  H       1.672691     -1.559393      3.026598
  O       1.448523      2.397175      0.199325
  O       0.542642      0.954365      1.635545
  C       0.981111      2.115282      1.308217
  C       0.929439      3.151707      2.393338
  H       0.890919      4.152244      1.971105
  H       1.838683      3.079732      2.993395
  H       0.085166      2.993089      3.060287
  H       3.248067     -1.897059      0.889254
  H       1.721707     -2.889781     -1.124608
