! Opt PBEh-3c
%geom Constraints
{ B 0 20 2.4714285714285715 C }
{ B 24 30 1.4142857142857144 C }
    end
end
%output 
xyzfile=True 
end 
%scf 
maxiter 250 
end
%output
Print[P_Hirshfeld] = 1
end
% maxcore
4000
*xyz 1 1
Ir   0.58345664  -0.72636845   0.46888085 
C    0.02787848  -2.80645569   0.34971517 
C    0.10897828  -2.36040981   1.71947591 
C    2.19470874  -2.14013704   0.76975145 
C    1.29299075  -2.64394192  -0.24201805 
C    1.47670059  -2.00452777   1.97054653 
N   -1.04337255   0.16754604  -0.51694506 
C   -2.31615622   0.49758348   0.14367313 
C   -3.12885017   1.55026747  -0.59271289 
H   -3.96003396   1.85845639   0.04002805 
H   -3.56680502   1.17863346  -1.52054865 
H   -2.54161004   2.44246749  -0.81236670 
C   -3.12070570  -0.77639531   0.37041289 
H   -2.02601432   0.90336643   1.11431270 
H   -4.03618872  -0.53834226   0.90985586 
H   -3.40308632  -1.24067182  -0.57542528 
H   -2.57536552  -1.50583813   0.96760511 
C   -0.83823705   0.37388157  -1.76017118 
C    0.51289710   0.15579952  -2.22942087 
H   -1.61882250   0.73077439  -2.42605334 
C    1.61673077   0.50883729  -1.46198526 
C    2.81991590   0.10034100  -2.10590044 
S    0.93709565  -0.60728784  -3.69706774 
C    2.60565700  -0.50492671  -3.30446417 
H    1.53694327   1.38542611  -0.66596481 
H    3.80711959   0.29908645  -1.71468173 
H    3.34145514  -0.87939649  -4.00005038 
H   -0.86206949  -3.16515572  -0.14721493 
H   -0.68083781  -2.39493812   2.45550481 
H    1.86401192  -1.61578203   2.90137627 
O    1.31500897   2.44831608   0.26238125 
O    0.53596895   0.90770832   1.67532298 
C    0.91135003   2.10570670   1.37139210 
C    0.85435647   3.08509288   2.50989074 
H    0.81039143   4.10485560   2.13733971 
H    1.76157475   2.98733879   3.10939342 
H    0.01037448   2.89122992   3.16856525 
H    3.24000152  -1.91006046   0.62605604 
H    1.55195894  -2.86288979  -1.26774869 
*
