! Opt PBEh-3c
%geom Constraints
{ B 0 20 2.1285714285714286 C }
{ B 24 30 1.4285714285714286 C }
    end
end
%output 
xyzfile=True 
end 
%scf 
maxiter 250 
end
%output
Print[P_Hirshfeld] = 1
end
% maxcore
4000
*xyz 1 1
Ir   0.62134915  -0.71583438   0.42424748 
C    0.13276595  -2.83093356   0.33112495 
C   -0.01278633  -2.37170438   1.68743929 
C    2.19151265  -2.07344644   1.05598614 
C    1.47629807  -2.64843744  -0.05498685 
C    1.26878889  -1.93430072   2.12139583 
N   -1.05836030   0.13257979  -0.51575899 
C   -2.32542261   0.37061253   0.19247800 
C   -3.11778270   1.55117360  -0.35016919 
H   -3.94249370   1.76322924   0.32867029 
H   -3.56260732   1.35059622  -1.32580756 
H   -2.51056907   2.45400266  -0.41872924 
C   -3.15479582  -0.90896476   0.18644341 
H   -2.03522969   0.59618659   1.21954319 
H   -4.05620885  -0.76786172   0.78127428 
H   -3.46156778  -1.17455570  -0.82603656 
H   -2.61064706  -1.75111863   0.61092238 
C   -0.90677895   0.43074676  -1.75244444 
C    0.41659775   0.24196775  -2.27417030 
H   -1.71494169   0.83304924  -2.35519024 
C    1.47757862   0.15603660  -1.37069377 
C    2.68817091  -0.13407180  -2.07329749 
S    0.87851215  -0.01230434  -3.88505722 
C    2.51215043  -0.24675718  -3.41741593 
H    1.58230501   1.15237680  -0.63507983 
H    3.65804674  -0.19569572  -1.60144830 
H    3.26211805  -0.43256497  -4.17115522 
H   -0.64955284  -3.24694555  -0.28700372 
H   -0.90503365  -2.41848707   2.29316281 
H    1.48691754  -1.49696694   3.08551350 
O    1.62098460   2.35726181   0.15775857 
O    0.55065225   0.99798778   1.55877138 
C    1.06504356   2.12560645   1.23937388 
C    0.99486007   3.19865020   2.28795689 
H    0.97470098   4.18424410   1.83013252 
H    1.89028685   3.14243023   2.90959284 
H    0.13295129   3.06919195   2.93780148 
H    3.24621115  -1.84857018   1.09409754 
H    1.89534576  -2.89921884  -1.01850171 
*
