39
Generated by autodE on: 2023-08-15. E = -1288.399627 Ha
Ir    0.60610  -0.73286   0.47858
C     0.10139  -2.83207   0.35313
C    -0.02287  -2.37100   1.71228
C     2.17821  -2.10740   1.06142
C     1.43971  -2.65715  -0.04973
C     1.27734  -1.96352   2.13888
N    -1.04324   0.12326  -0.50221
C    -2.32044   0.37472   0.18641
C    -3.09474   1.55773  -0.37677
H    -3.92533   1.78510   0.28999
H    -3.52989   1.35320  -1.35585
H    -2.47728   2.45344  -0.44684
C    -3.15968  -0.89785   0.18037
H    -2.04462   0.60811   1.21569
H    -4.06989  -0.74375   0.75835
H    -3.45164  -1.17234  -0.83415
H    -2.62974  -1.73975   0.62332
C    -0.88202   0.39148  -1.74418
C     0.44354   0.22220  -2.27359
H    -1.69586   0.76368  -2.35967
C     1.54082   0.26836  -1.42217
C     2.73418  -0.03311  -2.13735
S     0.85962  -0.14116  -3.88411
C     2.51544  -0.26597  -3.46181
H     1.58168   1.23373  -0.60037
H     3.72150  -0.02031  -1.69913
H     3.24658  -0.48391  -4.22551
H    -0.69513  -3.22998  -0.25881
H    -0.90756  -2.41287   2.32986
H     1.51454  -1.54059   3.10491
O     1.56058   2.34777   0.17442
O     0.55041   0.97768   1.61035
C     1.03766   2.11067   1.27418
C     0.98365   3.18649   2.31889
H     0.92292   4.16922   1.85844
H     1.90453   3.15475   2.90434
H     0.15162   3.03992   3.00299
H     3.23376  -1.88335   1.07960
H     1.84353  -2.89340  -1.02341
