39
Generated by autodE on: 2023-08-13. E = -1288.396370 Ha
Ir    0.57531  -0.73193   0.47883
C     0.02301  -2.81078   0.33863
C     0.11371  -2.37146   1.71153
C     2.19162  -2.14480   0.75127
C     1.28337  -2.64113  -0.25878
C     1.48458  -2.02098   1.95872
N    -1.03974   0.17770  -0.51106
C    -2.31240   0.52154   0.14254
C    -3.13100   1.54890  -0.62185
H    -3.96538   1.86710   0.00154
H    -3.56417   1.14914  -1.54021
H    -2.55040   2.43974  -0.86368
C    -3.11068  -0.74909   0.40657
H    -2.02161   0.95522   1.10093
H    -4.02594  -0.49996   0.94130
H    -3.39349  -1.24065  -0.52529
H    -2.56139  -1.45934   1.02310
C    -0.82251   0.37906  -1.75197
C     0.53133   0.14545  -2.21422
H    -1.59417   0.74168  -2.42529
C     1.64544   0.56950  -1.50134
C     2.84128   0.13815  -2.14357
S     0.93804  -0.70358  -3.64294
C     2.61242  -0.54892  -3.29412
H     1.55404   1.41901  -0.70562
H     3.83267   0.37713  -1.78713
H     3.34052  -0.95866  -3.97780
H    -0.87030  -3.16700  -0.15395
H    -0.67133  -2.41108   2.45266
H     1.87809  -1.64025   2.89025
O     1.26929   2.45443   0.27931
O     0.54172   0.88857   1.69342
C     0.88952   2.09889   1.38927
C     0.82600   3.06538   2.53916
H     0.76877   4.08809   2.17655
H     1.73627   2.97236   3.13471
H    -0.01314   2.85624   3.19949
H     3.23421  -1.90751   0.59883
H     1.53585  -2.84693  -1.28901
