! Opt PBEh-3c
%geom Constraints
{ B 0 20 2.5142857142857142 C }
{ B 24 30 1.4428571428571428 C }
    end
end
%output 
xyzfile=True 
end 
%scf 
maxiter 250 
end
%output
Print[P_Hirshfeld] = 1
end
% maxcore
4000
*xyz 1 1
Ir   0.58069978  -0.72777212   0.46403274 
C    0.02551423  -2.80741380   0.33741267 
C    0.11758616  -2.36326449   1.70811085 
C    2.19508246  -2.14164473   0.74395824 
C    1.28576721  -2.64253617  -0.26254950 
C    1.48812749  -2.01080539   1.95117422 
N   -1.04245626   0.17838155  -0.51664051 
C   -2.31305431   0.51977160   0.14165967 
C   -3.13552263   1.54717490  -0.61850671 
H   -3.96885171   1.86274731   0.00764324 
H   -3.57038333   1.14835815  -1.53649525 
H   -2.55732192   2.43965283  -0.86009659 
C   -3.10931461  -0.75192703   0.40679981 
H   -2.01918567   0.95232995   1.09961007 
H   -4.02260584  -0.50418654   0.94552721 
H   -3.39548705  -1.24219353  -0.52470349 
H   -2.55694372  -1.46259601   1.01997016 
C   -0.82815020   0.38340744  -1.75744421 
C    0.52595725   0.14920415  -2.21786811 
H   -1.59954292   0.74905604  -2.42927491 
C    1.63594989   0.54918602  -1.48399312 
C    2.83514226   0.11816272  -2.12144103 
S    0.93994191  -0.68090771  -3.65380723 
C    2.61244294  -0.54696261  -3.28565928 
H    1.55006265   1.40892800  -0.69506393 
H    3.82469805   0.34298066  -1.75090204 
H    3.34380860  -0.95092898  -3.96928413 
H   -0.86851719  -3.16511892  -0.15279348 
H   -0.66639342  -2.39969700   2.45041432 
H    1.88256840  -1.62519480   2.88030726 
O    1.28181700   2.46075456   0.27703198 
O    0.53825034   0.89325662   1.68060394 
C    0.89338443   2.10232380   1.38367586 
C    0.82731819   3.06564168   2.53612009 
H    0.77664568   4.08979493   2.17662694 
H    1.73355648   2.96663246   3.13681799 
H   -0.01672841   2.85791193   3.19063206 
H    3.23820743  -1.90764479   0.59057204 
H    1.53730030  -2.85567263  -1.29143778 
*
