39
Generated by autodE on: 2023-08-16. E = -1288.404277 Ha
Ir    0.60537  -0.75001   0.38180
C     0.19391  -2.86785   0.33282
C    -0.15428  -2.44797   1.66970
C     2.09200  -2.02075   1.33708
C     1.58619  -2.65364   0.16131
C     1.00315  -1.93881   2.26886
N    -1.10210   0.08979  -0.50500
C    -2.37477   0.22816   0.21724
C    -3.16480   1.47147  -0.16483
H    -4.00035   1.58372   0.52425
H    -3.59293   1.41267  -1.16645
H    -2.55832   2.37472  -0.09539
C    -3.20100  -1.03947   0.03026
H    -2.09708   0.31585   1.26896
H    -4.09861  -0.99443   0.64583
H    -3.51387  -1.15289  -1.00846
H    -2.64890  -1.93390   0.31494
C    -0.95720   0.51468  -1.70789
C     0.35591   0.35353  -2.24556
H    -1.76654   0.98253  -2.25842
C     1.34114  -0.07490  -1.35108
C     2.57533  -0.24631  -2.05718
S     0.91189   0.55937  -3.83838
C     2.48253   0.06449  -3.38280
H     1.68488   1.22844  -0.76860
H     3.50548  -0.53927  -1.59163
H     3.27166   0.04148  -4.11904
H    -0.46037  -3.35223  -0.37699
H    -1.12794  -2.51845   2.12969
H     1.05634  -1.48921   3.24999
O     1.83295   2.31545  -0.04483
O     0.64869   1.08152   1.38573
C     1.23851   2.14043   1.05460
C     1.26665   3.27219   2.03578
H     1.16413   4.22827   1.52749
H     2.23410   3.27729   2.54112
H     0.49012   3.16174   2.78693
H     3.12186  -1.77083   1.53996
H     2.15563  -2.90767  -0.72106
