39
Generated by autodE on: 2023-08-14. E = -1288.396642 Ha
Ir    0.58455  -0.72823   0.48167
C     0.02925  -2.80950   0.37114
C     0.08275  -2.35829   1.73919
C     2.18828  -2.14092   0.82851
C     1.30631  -2.65055  -0.19732
C     1.44381  -1.99718   2.01320
N    -1.04244   0.15192  -0.51458
C    -2.31998   0.46182   0.14807
C    -3.12118   1.54823  -0.55192
H    -3.95266   1.83987   0.08830
H    -3.55839   1.21547  -1.49462
H    -2.52484   2.44229  -0.73623
C    -3.13367  -0.81567   0.31634
H    -2.03778   0.82717   1.13688
H    -4.05330  -0.59480   0.85616
H    -3.40866  -1.24048  -0.64998
H    -2.59709  -1.57131   0.88819
C    -0.84742   0.36931  -1.75920
C     0.49786   0.17442  -2.24451
H    -1.63950   0.72123  -2.41399
C     1.59800   0.44876  -1.44072
C     2.80136   0.07558  -2.10356
S     0.92572  -0.47225  -3.76445
C     2.59029  -0.42614  -3.35078
H     1.53657   1.35089  -0.62639
H     3.78794   0.22692  -1.69015
H     3.32784  -0.75225  -4.06855
H    -0.84979  -3.17200  -0.14218
H    -0.72150  -2.38972   2.45936
H     1.81212  -1.60228   2.94918
O     1.37692   2.42026   0.24031
O     0.53437   0.92830   1.66735
C     0.94393   2.10672   1.35160
C     0.89727   3.11433   2.46425
H     0.86285   4.12542   2.06784
H     1.80509   3.02226   3.06381
H     0.05237   2.94298   3.12764
H     3.23744  -1.91619   0.70709
H     1.58467  -2.87720  -1.21616
