39
Generated by autodE on: 2023-08-14. E = -1288.399898 Ha
Ir    0.60949  -0.71715   0.45030
C     0.07730  -2.81284   0.34950
C     0.06441  -2.35277   1.71402
C     2.20733  -2.11080   0.89317
C     1.37822  -2.64677  -0.16174
C     1.40211  -1.96374   2.04050
N    -1.04445   0.14738  -0.51743
C    -2.31438   0.43481   0.16844
C    -3.10102   1.57402  -0.46130
H    -3.92669   1.83925   0.19761
H    -3.54462   1.30397  -1.42069
H    -2.49006   2.46721  -0.59382
C    -3.14347  -0.84124   0.25744
H    -2.02455   0.73276   1.17706
H    -4.05201  -0.64987   0.82659
H    -3.43785  -1.19178  -0.73263
H    -2.60594  -1.64285   0.76179
C    -0.87297   0.38165  -1.76292
C     0.46482   0.18309  -2.26155
H    -1.67311   0.74658  -2.40008
C     1.55470   0.34691  -1.41070
C     2.76113  -0.01267  -2.07956
S     0.90224  -0.36620  -3.81025
C     2.55937  -0.41007  -3.36472
H     1.53315   1.28024  -0.63961
H     3.74324   0.07472  -1.63816
H     3.30011  -0.70526  -4.09240
H    -0.77151  -3.19592  -0.19852
H    -0.77057  -2.38700   2.39787
H     1.72078  -1.54978   2.98657
O     1.40601   2.42684   0.20299
O     0.54044   0.94984   1.62926
C     0.95808   2.12363   1.31136
C     0.90092   3.14074   2.41541
H     0.86495   4.14854   2.01073
H     1.80594   3.05711   3.02028
H     0.05272   2.97134   3.07497
H     3.26130  -1.88783   0.82421
H     1.70381  -2.88688  -1.16326
