39
Generated by autodE on: 2023-08-13. E = -1288.397421 Ha
Ir    0.58762  -0.72425   0.46771
C     0.03308  -2.80600   0.35695
C     0.10071  -2.35680   1.72540
C     2.19581  -2.13636   0.79323
C     1.30389  -2.64527  -0.22440
C     1.46448  -1.99570   1.98620
N    -1.04433   0.16068  -0.51807
C    -2.31800   0.48027   0.14627
C    -3.12494   1.55244  -0.56845
H    -3.95525   1.85153   0.06983
H    -3.56404   1.20304  -1.50429
H    -2.53257   2.44575  -0.76878
C    -3.12772  -0.79572   0.34190
H    -2.02978   0.86325   1.12664
H    -4.04379  -0.56704   0.88443
H    -3.40895  -1.23734  -0.61504
H    -2.58581  -1.54046   0.92305
C    -0.84660   0.37213  -1.76234
C     0.50179   0.16343  -2.23837
H    -1.63279   0.72746  -2.42231
C     1.60083   0.47010  -1.44407
C     2.80648   0.07722  -2.09295
S     0.93265  -0.54088  -3.73120
C     2.59799  -0.47351  -3.31890
H     1.53146   1.36370  -0.64772
H     3.79182   0.24857  -1.68447
H     3.33671  -0.82481  -4.02342
H    -0.85145  -3.16770  -0.14744
H    -0.69585  -2.38977   2.45404
H     1.84234  -1.60203   2.91887
O     1.34017   2.44055   0.24895
O     0.53413   0.91947   1.66685
C     0.92394   2.10923   1.35894
C     0.87377   3.09956   2.48772
H     0.83535   4.11630   2.10643
H     1.78142   3.00179   3.08662
H     0.02947   2.91580   3.14876
H     3.24315  -1.90938   0.66054
H     1.57219  -2.87003  -1.24637
