! Opt PBEh-3c
%geom Constraints
{ B 0 20 2.1714285714285713 C }
{ B 24 30 1.3857142857142857 C }
    end
end
%output 
xyzfile=True 
end 
%scf 
maxiter 250 
end
%output
Print[P_Hirshfeld] = 1
end
% maxcore
4000
*xyz 1 1
Ir   0.60949886  -0.72044997   0.44171151 
C    0.11225410  -2.82961595   0.35551357 
C   -0.03090536  -2.36137795   1.70914620 
C    2.17568455  -2.08118776   1.07653312 
C    1.45637847  -2.65475954  -0.03287013 
C    1.25525871  -1.93092650   2.14118224 
N   -1.06049763   0.12741007  -0.51467784 
C   -2.33534348   0.35394506   0.18441437 
C   -3.13295364   1.52971775  -0.36129199 
H   -3.96307624   1.73481859   0.31302486 
H   -3.57064143   1.32754960  -1.33983240 
H   -2.53192430   2.43704225  -0.42491981 
C   -3.15631426  -0.93079803   0.16893804 
H   -2.05568173   0.58017538   1.21433452 
H   -4.06596601  -0.79561974   0.75258277 
H   -3.44900551  -1.19845571  -0.84716274 
H   -2.61278692  -1.76979378   0.60021307 
C   -0.90202825   0.43728683  -1.74772223 
C    0.42180852   0.26333343  -2.27271917 
H   -1.71127365   0.83858274  -2.34989625 
C    1.49032041   0.17133004  -1.38364958 
C    2.69409171  -0.11072889  -2.09615537 
S    0.87224435   0.03466447  -3.89361648 
C    2.50773508  -0.20455208  -3.44164806 
H    1.61106730   1.16030536  -0.60291992 
H    3.66749863  -0.18071558  -1.63288370 
H    3.25245096  -0.38026779  -4.20300799 
H   -0.67241534  -3.24343649  -0.26110862 
H   -0.92275048  -2.40138392   2.31600102 
H    1.47694869  -1.49111910   3.10337435 
O    1.68729501   2.31882062   0.17940465 
O    0.53740889   1.00641549   1.56070097 
C    1.09360991   2.11340961   1.24938179 
C    1.03140983   3.20115503   2.28171630 
H    1.00952208   4.17959045   1.80840570 
H    1.93234908   3.15486268   2.89614287 
H    0.17376423   3.08267400   2.93877459 
H    3.23106383  -1.85889711   1.11148810 
H    1.87327106  -2.90981356  -0.99616233 
*
