39
Generated by autodE on: 2023-08-14. E = -1288.398726 Ha
Ir    0.63517  -0.71621   0.40756
C     0.14971  -2.83504   0.30999
C     0.00589  -2.38534   1.66941
C     2.20739  -2.07454   1.03461
C     1.49253  -2.64842  -0.07688
C     1.28499  -1.94406   2.10263
N    -1.05251   0.13464  -0.51678
C    -2.31029   0.38775   0.20184
C    -3.09135   1.57873  -0.33417
H    -3.90925   1.80014   0.34996
H    -3.54424   1.38542  -1.30753
H    -2.47300   2.47380  -0.40498
C    -3.15386  -0.88254   0.20247
H    -2.00815   0.60881   1.22631
H    -4.04581  -0.73265   0.80920
H    -3.47643  -1.14214  -0.80663
H    -2.61308  -1.73147   0.61793
C    -0.90828   0.42036  -1.75730
C     0.41485   0.21588  -2.27499
H    -1.71468   0.82495  -2.36057
C     1.46760   0.13788  -1.35551
C     2.68653  -0.15524  -2.04817
S     0.89063  -0.05747  -3.87548
C     2.52252  -0.28482  -3.39088
H     1.54828   1.15093  -0.67396
H     3.65250  -0.20828  -1.56723
H     3.27847  -0.47769  -4.13681
H    -0.63213  -3.25169  -0.30831
H    -0.88630  -2.43494   2.27498
H     1.50325  -1.51019   3.06824
O     1.51558   2.40480   0.12233
O     0.56795   0.98720   1.55476
C     1.01987   2.14007   1.22279
C     0.94757   3.19557   2.29009
H     0.89985   4.18779   1.84928
H     1.85408   3.14606   2.89612
H     0.10023   3.03878   2.95328
H     3.26219  -1.85058   1.07433
H     1.91109  -2.89705  -1.04120
