! Opt PBEh-3c
%geom Constraints
{ B 0 20 2.0428571428571427 C }
{ B 24 30 1.3142857142857143 C }
    end
end
%output 
xyzfile=True 
end 
%scf 
maxiter 250 
end
%output
Print[P_Hirshfeld] = 1
end
% maxcore
4000
%pal nprocs 2
end
*xyz 1 1
Ir   0.61123082  -0.74515893   0.41449092 
C    0.15931605  -2.85820339   0.34170356 
C   -0.12066721  -2.41756627   1.68528894 
C    2.12407858  -2.05774342   1.25655050 
C    1.53999261  -2.66454313   0.09701421 
C    1.08742341  -1.94170461   2.23137693 
N   -1.07887720   0.10005231  -0.50629784 
C   -2.35275917   0.27401235   0.20758427 
C   -3.14113734   1.49930943  -0.23279853 
H   -3.97450758   1.64639876   0.45231704 
H   -3.57207488   1.39259029  -1.22919616 
H   -2.53343091   2.40415856  -0.20870504 
C   -3.18116338  -0.99934944   0.07831476 
H   -2.07596321   0.40981921   1.25425932 
H   -4.08558724  -0.91857518   0.68005105 
H   -3.48240322  -1.16782165  -0.95638714 
H   -2.63639693  -1.87837186   0.41912244 
C   -0.93120503   0.48222151  -1.72241158 
C    0.38315544   0.31891962  -2.26154182 
H   -1.74268891   0.92653242  -2.28952137 
C    1.40330143   0.00088464  -1.36490427 
C    2.62372070  -0.20080190  -2.08048825 
S    0.89500203   0.39880376  -3.87885765 
C    2.49221871  -0.01189720  -3.42423696 
H    1.64610232   1.18477130  -0.67446941 
H    3.57209597  -0.42198895  -1.61230065 
H    3.26323360  -0.07650853  -4.17701074 
H   -0.54311016  -3.31092574  -0.34267319 
H   -1.06909986  -2.47344269   2.19707536 
H    1.19822955  -1.49308719   3.20843833 
O    1.76748261   2.29925993   0.03847096 
O    0.60575429   1.04891792   1.46787616 
C    1.17658981   2.12370307   1.13233586 
C    1.17069453   3.25477845   2.11558960 
H    1.04457064   4.20735512   1.60592623 
H    2.13643315   3.28644299   2.62305313 
H    0.39535230   3.12527806   2.86502581 
H    3.16733118  -1.82741381   1.40715429 
H    2.05713263  -2.91991583  -0.81647899 
*
