! Opt PBEh-3c
%geom Constraints
{ B 0 20 2.5571428571428574 C }
{ B 24 30 1.4714285714285715 C }
    end
end
%output 
xyzfile=True 
end 
%scf 
maxiter 250 
end
%output
Print[P_Hirshfeld] = 1
end
% maxcore
4000
%pal nprocs 2
end
*xyz 1 1
Ir   0.57958702  -0.72962664   0.47322851 
C    0.02956402  -2.80977661   0.33238576 
C    0.11972454  -2.36941079   1.70521974 
C    2.19733684  -2.14090162   0.74516840 
C    1.28978948  -2.63915609  -0.26460177 
C    1.49020457  -2.01765122   1.95258489 
N   -1.03827227   0.18156696  -0.51172226 
C   -2.30884257   0.52849172   0.14395567 
C   -3.12696270   1.55614033  -0.62037092 
H   -3.95999250   1.87625213   0.00384761 
H   -3.56202944   1.15596232  -1.53767473 
H   -2.54527201   2.44582395  -0.86382179 
C   -3.10804781  -0.74095561   0.41090151 
H   -2.01536931   0.96263980   1.10127604 
H   -4.02123534  -0.49031495   0.94843431 
H   -3.39446806  -1.23246109  -0.51987641 
H   -2.55767783  -1.45173741   1.02587672 
C   -0.82182071   0.38195707  -1.75248532 
C    0.53164411   0.14060848  -2.21387273 
H   -1.59173766   0.74790816  -2.42597236 
C    1.64816388   0.57079649  -1.50844835 
C    2.84266422   0.13059655  -2.14721535 
S    0.93506156  -0.72732796  -3.63180521 
C    2.61056281  -0.57081147  -3.28818103 
H    1.55867286   1.41700656  -0.72402128 
H    3.83473649   0.37317748  -1.79526494 
H    3.33668682  -0.99054758  -3.96785757 
H   -0.86322190  -3.16762575  -0.15993384 
H   -0.66540656  -2.40907026   2.44628237 
H    1.88299065  -1.63555811   2.88387725 
O    1.24465137   2.46340516   0.28284882 
O    0.54376326   0.88350152   1.69475863 
C    0.87643576   2.10003086   1.39269045 
C    0.80852893   3.05940762   2.54881304 
H    0.73878333   4.08334078   2.19183070 
H    1.72271235   2.97302266   3.13930705 
H   -0.02500696   2.83841964   3.21241490 
H    3.23971035  -1.90261587   0.59278367 
H    1.54275840  -2.84531717  -1.29462012 
*
