! Opt PBEh-3c
%geom Constraints
{ B 0 20 2.428571428571429 C }
{ B 24 30 1.3714285714285714 C }
    end
end
%output 
xyzfile=True 
end 
%scf 
maxiter 250 
end
%output
Print[P_Hirshfeld] = 1
end
% maxcore
4000
*xyz 1 1
Ir   0.58454737  -0.72823119   0.48166752 
C    0.02924783  -2.80950304   0.37113793 
C    0.08274619  -2.35829408   1.73918517 
C    2.18827845  -2.14091848   0.82851163 
C    1.30631158  -2.65054694  -0.19731515 
C    1.44380554  -1.99717519   2.01320006 
N   -1.04243914   0.15192205  -0.51457854 
C   -2.31997704   0.46181697   0.14806583 
C   -3.12117680   1.54823019  -0.55192072 
H   -3.95265766   1.83987116   0.08829855 
H   -3.55838607   1.21546974  -1.49462002 
H   -2.52484027   2.44229014  -0.73622861 
C   -3.13366658  -0.81567188   0.31633603 
H   -2.03777909   0.82716905   1.13688473 
H   -4.05329681  -0.59479639   0.85615615 
H   -3.40866288  -1.24047826  -0.64997873 
H   -2.59709410  -1.57131174   0.88818527 
C   -0.84741744   0.36930792  -1.75919901 
C    0.49786334   0.17442369  -2.24451315 
H   -1.63950374   0.72123106  -2.41399288 
C    1.59799964   0.44875951  -1.44071812 
C    2.80135892   0.07558194  -2.10356175 
S    0.92572444  -0.47225194  -3.76444941 
C    2.59029191  -0.42613919  -3.35078441 
H    1.53656843   1.35088989  -0.62638835 
H    3.78794231   0.22692277  -1.69015478 
H    3.32783782  -0.75225382  -4.06855388 
H   -0.84979179  -3.17200013  -0.14218425 
H   -0.72149529  -2.38971956   2.45935726 
H    1.81212179  -1.60228424   2.94917722 
O    1.37692225   2.42025968   0.24030965 
O    0.53436803   0.92829610   1.66734501 
C    0.94393210   2.10671942   1.35159644 
C    0.89726689   3.11432609   2.46425313 
H    0.86285492   4.12542492   2.06783548 
H    1.80509254   3.02226232   3.06381079 
H    0.05236994   2.94298459   3.12763814 
H    3.23743554  -1.91619211   0.70708759 
H    1.58466694  -2.87720098  -1.21615769 
*
