39
Generated by autodE on: 2023-08-15. E = -1288.404425 Ha
Ir    0.60139  -0.73894   0.45638
C     0.12491  -2.84609   0.37071
C    -0.10926  -2.37818   1.71268
C     2.13168  -2.07569   1.22109
C     1.49471  -2.66674   0.07612
C     1.13517  -1.92870   2.22232
N    -1.06686   0.10309  -0.50541
C    -2.35014   0.29114   0.19059
C    -3.13891   1.50018  -0.29270
H    -3.97652   1.66670   0.38278
H    -3.56423   1.36071  -1.28743
H    -2.53373   2.40699  -0.29386
C    -3.17371  -0.98772   0.08944
H    -2.08532   0.45830   1.23573
H    -4.08892  -0.88870   0.67182
H    -3.45649  -1.19171  -0.94413
H    -2.63483  -1.85375   0.47050
C    -0.91160   0.45306  -1.72962
C     0.40406   0.30417  -2.27411
H    -1.72828   0.86787  -2.31236
C     1.46639   0.09571  -1.40324
C     2.66621  -0.12752  -2.13653
S     0.85891   0.26603  -3.91354
C     2.48347  -0.05544  -3.48649
H     1.65629   1.16670  -0.58302
H     3.63600  -0.27828  -1.68494
H     3.23026  -0.15788  -4.25922
H    -0.60966  -3.27948  -0.29221
H    -1.03870  -2.42257   2.25966
H     1.28621  -1.47915   3.19369
O     1.78398   2.26268   0.13104
O     0.56216   1.03545   1.52736
C     1.16224   2.10339   1.20615
C     1.14251   3.23275   2.19083
H     1.01543   4.18426   1.67901
H     2.10474   3.27136   2.70426
H     0.36194   3.10075   2.93434
H     3.18146  -1.85088   1.32878
H     1.97640  -2.92466  -0.85573
