39
Coordinates from ORCA-job reaction4-IEIP_ts_guess_scan_8-2_orca E -1288.400216765518
  Ir      0.619776     -0.702570      0.413885
  C       0.078067     -2.798681      0.332667
  C       0.112563     -2.341634      1.696519
  C       2.226516     -2.101813      0.800704
  C       1.360708     -2.635892     -0.225529
  C       1.462286     -1.952533      1.976095
  N      -1.047932      0.163554     -0.532895
  C      -2.310982      0.462942      0.158865
  C      -3.112709      1.577423     -0.494712
  H      -3.934359      1.853738      0.164687
  H      -3.563294      1.277891     -1.442190
  H      -2.511203      2.472278     -0.656670
  C      -3.129856     -0.815300      0.296536
  H      -2.009700      0.791907      1.154469
  H      -4.035166     -0.609860      0.865828
  H      -3.429438     -1.201052     -0.678745
  H      -2.583583     -1.595108      0.825048
  C      -0.876320      0.391658     -1.773290
  C       0.463482      0.168604     -2.244412
  H      -1.665038      0.764760     -2.419573
  C       1.535248      0.336854     -1.368306
  C       2.752467     -0.045482     -2.010008
  S       0.924707     -0.426949     -3.765611
  C       2.573538     -0.474208     -3.286815
  H       1.506197      1.268998     -0.634015
  H       3.726371      0.048292     -1.551905
  H       3.325011     -0.792835     -3.993303
  H      -0.790901     -3.176967     -0.186394
  H      -0.699230     -2.372731      2.407771
  H       1.815234     -1.539676      2.910311
  O       1.349222      2.465101      0.208480
  O       0.536992      0.942987      1.618536
  C       0.926295      2.133155      1.315211
  C       0.864983      3.123157      2.444862
  H       0.838005      4.140726      2.064923
  H       1.762372      3.018470      3.057744
  H       0.009323      2.943218      3.092290
  H       3.277963     -1.880771      0.695640
  H       1.651757     -2.882460     -1.235959
39
Coordinates from ORCA-job reaction4-IEIP_ts_guess_scan_8-2_orca E -1288.400165539662
  Ir      0.616934     -0.695732      0.409516
  C       0.080137     -2.795621      0.335377
  C       0.114214     -2.336614      1.698507
  C       2.226309     -2.092002      0.801539
  C       1.362064     -2.630840     -0.223375
  C       1.461643     -1.942046      1.976282
  N      -1.057772      0.161963     -0.536254
  C      -2.320875      0.460238      0.155957
  C      -3.126162      1.569895     -0.501460
  H      -3.948421      1.846220      0.157141
  H      -3.576043      1.265395     -1.447703
  H      -2.527393      2.465950     -0.667034
  C      -3.135647     -0.820008      0.298665
  H      -2.019911      0.793566      1.150174
  H      -4.040940     -0.615660      0.868354
  H      -3.435157     -1.209813     -0.675036
  H      -2.586184     -1.596394      0.828917
  C      -0.886179      0.384373     -1.782554
  C       0.457570      0.164922     -2.256426
  H      -1.676703      0.751975     -2.429769
  C       1.528115      0.337359     -1.378546
  C       2.747850     -0.042025     -2.018010
  S       0.922918     -0.433107     -3.775211
  C       2.571711     -0.474983     -3.293732
  H       1.498027      1.288277     -0.660277
  H       3.721148      0.058118     -1.559799
  H       3.325243     -0.792757     -3.998341
  H      -0.787835     -3.177909     -0.182469
  H      -0.696805     -2.369386      2.410501
  H       1.813487     -1.526483      2.909711
  O       1.459177      2.441251      0.253092
  O       0.525101      0.952120      1.617697
  C       0.966794      2.128255      1.336751
  C       0.875418      3.123799      2.459162
  H       0.900792      4.140416      2.076446
  H       1.734714      2.993399      3.119804
  H      -0.019191      2.972702      3.059516
  H       3.277460     -1.869727      0.696638
  H       1.653762     -2.879895     -1.233009
39
Coordinates from ORCA-job reaction4-IEIP_ts_guess_scan_8-2_orca E -1288.399959942763
  Ir      0.625594     -0.704154      0.411906
  C       0.075637     -2.804704      0.336218
  C       0.112777     -2.352271      1.701415
  C       2.224510     -2.114274      0.804915
  C       1.358382     -2.645385     -0.222074
  C       1.459566     -1.963394      1.979176
  N      -1.050181      0.166508     -0.523654
  C      -2.312785      0.462985      0.169916
  C      -3.111238      1.583183     -0.478005
  H      -3.934507      1.855956      0.180763
  H      -3.559051      1.290680     -1.429039
  H      -2.508214      2.478462     -0.632121
  C      -3.133139     -0.815323      0.296106
  H      -2.012638      0.783693      1.168473
  H      -4.038446     -0.614242      0.866905
  H      -3.432810     -1.192206     -0.682641
  H      -2.587328     -1.600187      0.817581
  C      -0.871436      0.402166     -1.775787
  C       0.477756      0.181845     -2.257989
  H      -1.659886      0.780301     -2.419399
  C       1.549275      0.323891     -1.372647
  C       2.766399     -0.063263     -2.014007
  S       0.941251     -0.398338     -3.783806
  C       2.588324     -0.473955     -3.296539
  H       1.544325      1.295424     -0.662969
  H       3.739896      0.018820     -1.552319
  H       3.339977     -0.791671     -4.003058
  H      -0.794166     -3.181614     -0.182576
  H      -0.697578     -2.384690      2.414046
  H       1.813040     -1.553010      2.914271
  O       1.280805      2.464644      0.190603
  O       0.539188      0.943118      1.630132
  C       0.903653      2.135571      1.315827
  C       0.852984      3.134747      2.436899
  H       0.793318      4.148112      2.049213
  H       1.769408      3.054675      3.024654
  H       0.019899      2.942104      3.109364
  H       3.277518     -1.900125      0.702808
  H       1.649289     -2.894891     -1.231823
39
Coordinates from ORCA-job reaction4-IEIP_ts_guess_scan_8-2_orca E -1288.400465058214
  Ir      0.618375     -0.702381      0.413461
  C       0.072394     -2.800873      0.343513
  C       0.107619     -2.342007      1.706380
  C       2.220718     -2.105073      0.809944
  C       1.355444     -2.641657     -0.214955
  C       1.455186     -1.951048      1.983826
  N      -1.052146      0.161521     -0.530204
  C      -2.316181      0.456387      0.160252
  C      -3.117859      1.571797     -0.491817
  H      -3.942229      1.844408      0.165733
  H      -3.564519      1.274532     -1.441873
  H      -2.517392      2.468215     -0.648838
  C      -3.132816     -0.824003      0.291045
  H      -2.017285      0.781743      1.157709
  H      -4.039143     -0.623170      0.860377
  H      -3.430571     -1.205743     -0.686360
  H      -2.585168     -1.605087      0.816250
  C      -0.878042      0.394368     -1.775186
  C       0.465834      0.177744     -2.253308
  H      -1.668093      0.768739     -2.418907
  C       1.537327      0.329171     -1.371510
  C       2.755778     -0.047803     -2.015482
  S       0.929204     -0.400490     -3.779783
  C       2.578476     -0.455619     -3.299232
  H       1.517549      1.277462     -0.645013
  H       3.729111      0.038840     -1.554650
  H       3.330868     -0.764845     -4.008892
  H      -0.796703     -3.180412     -0.174415
  H      -0.703737     -2.371362      2.418083
  H       1.807736     -1.535771      2.917107
  O       1.368875      2.466287      0.209208
  O       0.536805      0.949114      1.615291
  C       0.935115      2.136126      1.313741
  C       0.875842      3.127232      2.441797
  H       0.857136      4.144765      2.061228
  H       1.769868      3.016991      3.058555
  H       0.016050      2.952830      3.085103
  H       3.273105     -1.888109      0.706488
  H       1.646839     -2.893626     -1.223924
39
Coordinates from ORCA-job reaction4-IEIP_ts_guess_scan_8-2_orca E -1288.400490624954
  Ir      0.619662     -0.703843      0.413626
  C       0.073985     -2.802546      0.344855
  C       0.107730     -2.343577      1.707553
  C       2.221699     -2.106219      0.813000
  C       1.357630     -2.643423     -0.212448
  C       1.454677     -1.951920      1.985927
  N      -1.051073      0.160297     -0.530564
  C      -2.314574      0.456180      0.160855
  C      -3.115406      1.573599     -0.488868
  H      -3.938699      1.846517      0.169883
  H      -3.563539      1.278187     -1.438783
  H      -2.513832      2.469369     -0.645356
  C      -3.133340     -0.822983      0.291059
  H      -2.014555      0.779953      1.158554
  H      -4.038907     -0.621203      0.861279
  H      -3.432460     -1.203251     -0.686501
  H      -2.586621     -1.605447      0.815069
  C      -0.877623      0.394130     -1.775460
  C       0.465488      0.178364     -2.255354
  H      -1.668103      0.769592     -2.417977
  C       1.537220      0.325764     -1.373184
  C       2.755165     -0.049152     -2.019139
  S       0.928383     -0.389085     -3.785781
  C       2.576822     -0.454223     -3.303662
  H       1.519665      1.277600     -0.650125
  H       3.728663      0.034095     -1.558065
  H       3.328504     -0.763233     -4.014142
  H      -0.794436     -3.182524     -0.173861
  H      -0.704344     -2.372745      2.418430
  H       1.806142     -1.536103      2.919388
  O       1.377180      2.461350      0.212161
  O       0.536417      0.948318      1.615306
  C       0.940715      2.133125      1.316150
  C       0.869953      3.128438      2.439996
  H       0.851622      4.144579      2.055666
  H       1.759531      3.022637      3.063903
  H       0.005684      2.954214      3.077386
  H       3.274282     -1.889593      0.710907
  H       1.650062     -2.896048     -1.220946
39
Coordinates from ORCA-job reaction4-IEIP_ts_guess_scan_8-2_orca E -1288.400514486848
  Ir      0.619631     -0.705915      0.415176
  C       0.074048     -2.804837      0.349416
  C       0.104732     -2.344671      1.711561
  C       2.220651     -2.107699      0.821070
  C       1.359000     -2.646483     -0.205400
  C       1.450596     -1.951917      1.991936
  N      -1.050581      0.158216     -0.531344
  C      -2.314334      0.453708      0.160238
  C      -3.114483      1.573277     -0.486684
  H      -3.937406      1.845274      0.172880
  H      -3.563119      1.280342     -1.437108
  H      -2.512267      2.468950     -0.641269
  C      -3.134533     -0.824865      0.287878
  H      -2.014295      0.775064      1.158753
  H      -4.039881     -0.623308      0.858521
  H      -3.434037     -1.202811     -0.690463
  H      -2.588596     -1.608939      0.810244
  C      -0.877268      0.393921     -1.776219
  C       0.465141      0.179834     -2.258147
  H      -1.668434      0.769919     -2.417597
  C       1.536479      0.319930     -1.374161
  C       2.754631     -0.049504     -2.022852
  S       0.928102     -0.376338     -3.792356
  C       2.576796     -0.442437     -3.311288
  H       1.521179      1.275908     -0.654266
  H       3.727992      0.029884     -1.560836
  H       3.328716     -0.744381     -4.024523
  H      -0.793080     -3.185728     -0.170789
  H      -0.708931     -2.372805      2.420634
  H       1.799852     -1.534555      2.925552
  O       1.376762      2.458174      0.209732
  O       0.534902      0.949008      1.614558
  C       0.938128      2.132946      1.313879
  C       0.873571      3.129508      2.437193
  H       0.856663      4.145400      2.052167
  H       1.764888      3.021956      3.058356
  H       0.010908      2.957938      3.077479
  H       3.273633     -1.891864      0.721616
  H       1.653612     -2.900911     -1.212798
39
Coordinates from ORCA-job reaction4-IEIP_ts_guess_scan_8-2_orca E -1288.400539201330
  Ir      0.618991     -0.710152      0.418641
  C       0.071497     -2.808369      0.357955
  C       0.097351     -2.345610      1.719034
  C       2.216996     -2.111904      0.835557
  C       1.358890     -2.652721     -0.192576
  C       1.441962     -1.952453      2.002930
  N      -1.048694      0.154974     -0.531494
  C      -2.313123      0.447692      0.160360
  C      -3.112152      1.571539     -0.480548
  H      -3.935111      1.840308      0.180267
  H      -3.560663      1.284219     -1.432730
  H      -2.509224      2.467628     -0.629861
  C      -3.134675     -0.830814      0.280377
  H      -2.013906      0.763225      1.160966
  H      -4.040144     -0.631568      0.851617
  H      -3.433923     -1.203002     -0.700245
  H      -2.589703     -1.618338      0.798574
  C      -0.876108      0.395980     -1.775481
  C       0.464624      0.185451     -2.261312
  H      -1.668665      0.774027     -2.414016
  C       1.535611      0.309579     -1.374304
  C       2.753747     -0.050266     -2.028532
  S       0.927534     -0.345174     -3.804022
  C       2.576180     -0.419192     -3.324211
  H       1.523643      1.266842     -0.653103
  H       3.726915      0.018805     -1.564481
  H       3.327981     -0.709119     -4.042533
  H      -0.793811     -3.189962     -0.164782
  H      -0.719205     -2.370661      2.424849
  H       1.787875     -1.532411      2.936614
  O       1.379072      2.455764      0.201687
  O       0.536964      0.950496      1.611247
  C       0.941562      2.132502      1.307391
  C       0.879779      3.132807      2.427636
  H       0.861114      4.147467      2.039504
  H       1.773180      3.027686      3.046217
  H       0.019265      2.962684      3.071197
  H       3.270805     -1.898255      0.740439
  H       1.656937     -2.910515     -1.198090
39
Coordinates from ORCA-job reaction4-IEIP_ts_guess_scan_8-2_orca E -1288.400545788099
  Ir      0.618158     -0.712289      0.421580
  C       0.070349     -2.809958      0.363631
  C       0.090147     -2.344588      1.723855
  C       2.214068     -2.113002      0.849257
  C       1.360426     -2.655884     -0.181420
  C       1.433435     -1.950777      2.012720
  N      -1.047291      0.152445     -0.531675
  C      -2.312337      0.441500      0.160817
  C      -3.110850      1.568930     -0.474490
  H      -3.934016      1.834189      0.187494
  H      -3.559000      1.286709     -1.428351
  H      -2.507718      2.465675     -0.618809
  C      -3.134277     -0.837508      0.272974
  H      -2.014189      0.751618      1.163411
  H      -4.040196     -0.641248      0.844557
  H      -3.432764     -1.204179     -0.709952
  H      -2.589953     -1.628132      0.787073
  C      -0.876039      0.398444     -1.774791
  C       0.463131      0.191428     -2.264291
  H      -1.670179      0.778181     -2.410341
  C       1.534169      0.300860     -1.375402
  C       2.751721     -0.052268     -2.034196
  S       0.925970     -0.313214     -3.815429
  C       2.573485     -0.402620     -3.335055
  H       1.525478      1.257016     -0.650471
  H       3.724815      0.005745     -1.568501
  H       3.324591     -0.685312     -4.056965
  H      -0.792477     -3.192624     -0.162404
  H      -0.729832     -2.367227      2.425763
  H       1.775197     -1.528254      2.946830
  O       1.389246      2.451897      0.197352
  O       0.537542      0.952623      1.608323
  C       0.945932      2.132534      1.302257
  C       0.886330      3.135849      2.419888
  H       0.870186      4.149528      2.029134
  H       1.779481      3.030157      3.038745
  H       0.025356      2.969352      3.063726
  H       3.268502     -1.900386      0.758934
  H       1.662772     -2.916019     -1.185038
39
Coordinates from ORCA-job reaction4-IEIP_ts_guess_scan_8-2_orca E -1288.400553778843
  Ir      0.618340     -0.713262      0.423510
  C       0.070517     -2.810665      0.365014
  C       0.085608     -2.343980      1.724970
  C       2.212857     -2.113691      0.857738
  C       1.362602     -2.657217     -0.175451
  C       1.428112     -1.950343      2.018339
  N      -1.045956      0.151488     -0.531213
  C      -2.311095      0.438559      0.162208
  C      -3.108918      1.568870     -0.468988
  H      -3.931859      1.832153      0.194086
  H      -3.557290      1.290426     -1.423833
  H      -2.505232      2.465734     -0.610083
  C      -3.133896     -0.840373      0.268905
  H      -2.013312      0.744817      1.166071
  H      -4.040009     -0.645829      0.840811
  H      -3.432143     -1.202990     -0.715592
  H      -2.590448     -1.633502      0.779993
  C      -0.876027      0.399594     -1.774179
  C       0.462007      0.193349     -2.266075
  H      -1.671354      0.779712     -2.407949
  C       1.533433      0.294618     -1.376900
  C       2.750376     -0.054938     -2.038286
  S       0.923615     -0.302808     -3.820388
  C       2.571569     -0.392788     -3.342499
  H       1.526794      1.249323     -0.648662
  H       3.723679     -0.001684     -1.572486
  H       3.322384     -0.669050     -4.067186
  H      -0.790342     -3.193824     -0.163857
  H      -0.736984     -2.365518      2.423866
  H       1.766717     -1.526910      2.953191
  O       1.398275      2.447179      0.196161
  O       0.538586      0.953133      1.607993
  C       0.951678      2.131207      1.300819
  C       0.887153      3.138321      2.414606
  H       0.871236      4.150594      2.020197
  H       1.778456      3.035717      3.036607
  H       0.024254      2.973143      3.056165
  H       3.267665     -1.901430      0.771009
  H       1.668321     -2.917943     -1.177891
39
Coordinates from ORCA-job reaction4-IEIP_ts_guess_scan_8-2_orca E -1288.400562592942
  Ir      0.618820     -0.712338      0.424251
  C       0.072845     -2.810288      0.362606
  C       0.083834     -2.343513      1.722785
  C       2.213469     -2.111986      0.861813
  C       1.366295     -2.655656     -0.173930
  C       1.425506     -1.949618      2.020342
  N      -1.045625      0.151402     -0.530620
  C      -2.310671      0.437618      0.163512
  C      -3.107887      1.569827     -0.465254
  H      -3.930568      1.832247      0.198491
  H      -3.556525      1.293679     -1.420622
  H      -2.503619      2.466568     -0.604582
  C      -3.134224     -0.841085      0.266847
  H      -2.012986      0.741571      1.168071
  H      -4.040445     -0.647494      0.838932
  H      -3.432397     -1.201103     -0.718625
  H      -2.591509     -1.635938      0.776018
  C      -0.876667      0.399475     -1.773890
  C       0.460977      0.193264     -2.266861
  H      -1.672705      0.779348     -2.406858
  C       1.532894      0.292344     -1.378462
  C       2.749342     -0.057100     -2.040243
  S       0.921877     -0.301142     -3.822250
  C       2.569594     -0.393866     -3.344729
  H       1.527220      1.245566     -0.647639
  H       3.722882     -0.005046     -1.574823
  H       3.320029     -0.670121     -4.069812
  H      -0.786147     -3.194140     -0.168782
  H      -0.740699     -2.365858      2.419391
  H       1.761293     -1.526397      2.956303
  O       1.401294      2.444171      0.196512
  O       0.538164      0.953413      1.609459
  C       0.952491      2.130991      1.300970
  C       0.887027      3.139663      2.413123
  H       0.870936      4.151316      2.017099
  H       1.778125      3.038391      3.035618
  H       0.023874      2.975124      3.054476
  H       3.268315     -1.898788      0.777865
  H       1.674939     -2.915314     -1.175760
39
Coordinates from ORCA-job reaction4-IEIP_ts_guess_scan_8-2_orca E -1288.400573180279
  Ir      0.619831     -0.710455      0.425895
  C       0.078340     -2.810023      0.357273
  C       0.079996     -2.343713      1.717987
  C       2.214765     -2.108225      0.871082
  C       1.374794     -2.652365     -0.170375
  C       1.419315     -1.948708      2.024887
  N      -1.045059      0.150943     -0.529018
  C      -2.309878      0.435936      0.166205
  C      -3.105160      1.572469     -0.457522
  H      -3.927342      1.833457      0.207394
  H      -3.554220      1.301309     -1.414089
  H      -2.499171      2.468627     -0.593004
  C      -3.135404     -0.842016      0.262567
  H      -2.012313      0.734814      1.172263
  H      -4.041530     -0.650368      0.835481
  H      -3.433919     -1.196191     -0.724925
  H      -2.594065     -1.640722      0.767221
  C      -0.878065      0.397962     -1.773089
  C       0.458677      0.192070     -2.268377
  H      -1.675656      0.776934     -2.404619
  C       1.531570      0.287785     -1.381574
  C       2.747071     -0.061077     -2.044432
  S       0.918006     -0.299103     -3.825856
  C       2.565414     -0.395809     -3.349444
  H       1.527892      1.239274     -0.647041
  H       3.721152     -0.010522     -1.580048
  H       3.315144     -0.671694     -4.075408
  H      -0.776399     -3.195516     -0.179750
  H      -0.748728     -2.368675      2.409544
  H       1.748485     -1.526203      2.963526
  O       1.404324      2.438739      0.196237
  O       0.537477      0.953975      1.612622
  C       0.953124      2.130586      1.300946
  C       0.887307      3.142371      2.410026
  H       0.869283      4.152823      2.010964
  H       1.779398      3.044452      3.031616
  H       0.025137      2.978374      3.052779
  H       3.269669     -1.892900      0.793613
  H       1.690105     -2.909424     -1.170818
39
Coordinates from ORCA-job reaction4-IEIP_ts_guess_scan_8-2_orca E -1288.400576123864
  Ir      0.620137     -0.710062      0.426606
  C       0.080805     -2.810473      0.355264
  C       0.078332     -2.344709      1.716236
  C       2.215194     -2.106773      0.875428
  C       1.378560     -2.651349     -0.168463
  C       1.416294     -1.948762      2.027103
  N      -1.045128      0.150455     -0.528196
  C      -2.309924      0.435178      0.167206
  C      -3.103936      1.573766     -0.454429
  H      -3.926015      1.834306      0.210782
  H      -3.552998      1.304904     -1.411633
  H      -2.496919      2.469500     -0.588061
  C      -3.136515     -0.842318      0.260559
  H      -2.012464      0.731695      1.173983
  H      -4.042344     -0.651535      0.834228
  H      -3.435563     -1.193658     -0.727791
  H      -2.595575     -1.642810      0.762831
  C      -0.878794      0.396691     -1.772593
  C       0.457576      0.191109     -2.268739
  H      -1.676991      0.775003     -2.403776
  C       1.530886      0.286174     -1.382467
  C       2.746134     -0.061931     -2.046064
  S       0.916302     -0.298675     -3.826962
  C       2.563803     -0.395682     -3.351297
  H       1.527780      1.237616     -0.647383
  H       3.720454     -0.011486     -1.582180
  H       3.313308     -0.670930     -4.077738
  H      -0.772052     -3.196731     -0.184191
  H      -0.752133     -2.371210      2.405648
  H       1.742375     -1.526540      2.966955
  O       1.404731      2.437568      0.195278
  O       0.537791      0.954417      1.613316
  C       0.953575      2.130631      1.300336
  C       0.888298      3.143532      2.408449
  H       0.868764      4.153579      2.008419
  H       1.781432      3.047189      3.028794
  H       0.027219      2.979335      3.052595
  H       3.270129     -1.890579      0.800963
  H       1.696841     -2.907248     -1.168275
39
Coordinates from ORCA-job reaction4-IEIP_ts_guess_scan_8-2_orca E -1288.400582197091
  Ir      0.620778     -0.709589      0.428077
  C       0.087268     -2.812039      0.349696
  C       0.073876     -2.348229      1.711413
  C       2.216108     -2.103050      0.886602
  C       1.388443     -2.648926     -0.163646
  C       1.407987     -1.949322      2.032633
  N      -1.045410      0.149110     -0.525924
  C      -2.310030      0.433453      0.169906
  C      -3.100465      1.577341     -0.446545
  H      -3.922325      1.836977      0.219278
  H      -3.549462      1.314365     -1.405389
  H      -2.490589      2.471803     -0.575469
  C      -3.139411     -0.842790      0.255863
  H      -2.012713      0.723910      1.178476
  H      -4.043978     -0.654326      0.832270
  H      -3.440607     -1.186566     -0.734508
  H      -2.598982     -1.647913      0.751338
  C      -0.880741      0.393091     -1.771053
  C       0.454688      0.188137     -2.269130
  H      -1.680358      0.769485     -2.401670
  C       1.529141      0.282950     -1.384225
  C       2.743787     -0.063326     -2.049842
  S       0.911738     -0.299258     -3.828725
  C       2.559788     -0.395471     -3.355324
  H       1.527174      1.234941     -0.649101
  H       3.718729     -0.012488     -1.587332
  H       3.308686     -0.669214     -4.082964
  H      -0.760627     -3.200184     -0.196179
  H      -0.761121     -2.379073      2.395155
  H       1.725750     -1.527775      2.975661
  O       1.404967      2.436091      0.191972
  O       0.539218      0.955595      1.613724
  C       0.954727      2.131012      1.297956
  C       0.890867      3.146268      2.404150
  H       0.866664      4.155428      2.002118
  H       1.787074      3.054201      3.020727
  H       0.033074      2.980828      3.052318
  H       3.271107     -1.884662      0.820223
  H       1.714549     -2.901596     -1.161789
39
Coordinates from ORCA-job reaction4-IEIP_ts_guess_scan_8-2_orca E -1288.400585519001
  Ir      0.621341     -0.709835      0.428903
  C       0.092806     -2.813655      0.344765
  C       0.070024     -2.351680      1.707119
  C       2.216813     -2.100110      0.895981
  C       1.396926     -2.647199     -0.159645
  C       1.400749     -1.949991      2.037120
  N      -1.045730      0.148029     -0.524050
  C      -2.310100      0.432008      0.172362
  C      -3.097533      1.580329     -0.439655
  H      -3.919245      1.839121      0.226678
  H      -3.546443      1.322393     -1.399889
  H      -2.485299      2.473737     -0.564536
  C      -3.141814     -0.843150      0.252143
  H      -2.012817      0.717332      1.182387
  H      -4.044982     -0.656761      0.831397
  H      -3.445345     -1.180280     -0.739806
  H      -2.601550     -1.652244      0.741355
  C      -0.882432      0.390620     -1.769618
  C       0.452323      0.185859     -2.269107
  H      -1.683028      0.765649     -2.399868
  C       1.527803      0.280952     -1.385307
  C       2.741861     -0.064289     -2.052659
  S       0.907795     -0.300375     -3.829473
  C       2.556475     -0.395672     -3.358125
  H       1.526764      1.233737     -0.651006
  H       3.717315     -0.013140     -1.591269
  H       3.304736     -0.668494     -4.086769
  H      -0.750807     -3.203312     -0.206629
  H      -0.768902     -2.386018      2.385868
  H       1.711325     -1.528785      2.982714
  O       1.405407      2.435946      0.188677
  O       0.541047      0.956696      1.612744
  C       0.955997      2.131696      1.295294
  C       0.892777      3.148505      2.400219
  H       0.864299      4.156987      1.996753
  H       1.791497      3.060183      3.013692
  H       0.037748      2.981558      3.051620
  H       3.271861     -1.880038      0.836666
  H       1.729707     -2.897120     -1.156307
39
Coordinates from ORCA-job reaction4-IEIP_ts_guess_scan_8-2_orca E -1288.400587384000
  Ir      0.622164     -0.710616      0.429229
  C       0.099389     -2.815538      0.338412
  C       0.065275     -2.355721      1.701472
  C       2.217572     -2.096831      0.906872
  C       1.407088     -2.645325     -0.155175
  C       1.391964     -1.950736      2.042018
  N      -1.045917      0.147047     -0.522039
  C      -2.309759      0.430422      0.175566
  C      -3.094114      1.583716     -0.431063
  H      -3.915571      1.841274      0.236073
  H      -3.543078      1.331624     -1.392798
  H      -2.479443      2.476065     -0.551319
  C      -3.144031     -0.843510      0.248377
  H      -2.012242      0.709905      1.187123
  H      -4.045278     -0.659637      0.831401
  H      -3.450755     -1.172817     -0.745216
  H      -2.603762     -1.657233      0.729923
  C      -0.884311      0.388878     -1.767907
  C       0.449790      0.183834     -2.268934
  H      -1.685786      0.763033     -2.397602
  C       1.526519      0.279372     -1.386469
  C       2.739684     -0.065754     -2.055694
  S       0.903109     -0.302332     -3.829778
  C       2.552603     -0.397057     -3.360881
  H       1.526734      1.233204     -0.653688
  H       3.715728     -0.014568     -1.595554
  H       3.299879     -0.669626     -4.090627
  H      -0.739005     -3.206906     -0.219679
  H      -0.778531     -2.393590      2.373961
  H       1.693928     -1.529661      2.990482
  O       1.406212      2.436522      0.184525
  O       0.543570      0.957866      1.610308
  C       0.957492      2.132748      1.291628
  C       0.894029      3.150870      2.395390
  H       0.860271      4.158613      1.990456
  H       1.795400      3.067132      3.005608
  H       0.042007      2.981640      3.050100
  H       3.272682     -1.875019      0.856198
  H       1.747862     -2.892099     -1.149958
39
Coordinates from ORCA-job reaction4-IEIP_ts_guess_scan_8-2_orca E -1288.400586839340
  Ir      0.622980     -0.711444      0.428843
  C       0.103897     -2.816715      0.333706
  C       0.061817     -2.358148      1.697155
  C       2.218055     -2.094857      0.914303
  C       1.414172     -2.644261     -0.152205
  C       1.385759     -1.951087      2.045102
  N      -1.045895      0.146702     -0.520978
  C      -2.309200      0.429347      0.177915
  C      -3.092111      1.585684     -0.424871
  H      -3.913335      1.842013      0.243033
  H      -3.541238      1.337402     -1.387506
  H      -2.476276      2.477625     -0.542108
  C      -3.144948     -0.843866      0.246262
  H      -2.011285      0.705152      1.190335
  H      -4.044828     -0.661716      0.831934
  H      -3.453960     -1.168053     -0.748299
  H      -2.604670     -1.660636      0.722647
  C      -0.885479      0.389058     -1.766830
  C       0.448312      0.183390     -2.268880
  H      -1.687282      0.763602     -2.395874
  C       1.525922      0.278928     -1.387349
  C       2.738266     -0.067206     -2.057676
  S       0.899886     -0.303735     -3.829775
  C       2.549921     -0.399020     -3.362495
  H       1.527200      1.233431     -0.655778
  H       3.714711     -0.016476     -1.598330
  H       3.296276     -0.672248     -4.092931
  H      -0.730744     -3.209299     -0.229125
  H      -0.785607     -2.397607      2.364996
  H       1.681776     -1.529825      2.995371
  O       1.407134      2.437353      0.181634
  O       0.545614      0.958585      1.607870
  C       0.958606      2.133693      1.288872
  C       0.894229      3.152294      2.392087
  H       0.856775      4.159584      1.986319
  H       1.797136      3.071749      3.000450
  H       0.044006      2.981158      3.048612
  H       3.273245     -1.872165      0.869841
  H       1.760536     -2.889195     -1.145537
39
Coordinates from ORCA-job reaction4-IEIP_ts_guess_scan_8-2_orca E -1288.400585364779
  Ir      0.623612     -0.711885      0.428045
  C       0.105758     -2.817009      0.331341
  C       0.059989     -2.358660      1.694849
  C       2.218189     -2.094248      0.917618
  C       1.417334     -2.644002     -0.150927
  C       1.382761     -1.950971      2.046253
  N      -1.045684      0.146890     -0.520877
  C      -2.308579      0.428915      0.179005
  C      -3.091651      1.586125     -0.422011
  H      -3.912691      1.841518      0.246479
  H      -3.541015      1.339185     -1.384875
  H      -2.475889      2.478257     -0.538176
  C      -3.144610     -0.844171      0.245867
  H      -2.010214      0.703552      1.191594
  H      -4.043952     -0.662708      0.832588
  H      -3.454554     -1.166576     -0.748976
  H      -2.604349     -1.662058      0.720346
  C      -0.885810      0.390431     -1.766515
  C       0.447933      0.184145     -2.269053
  H      -1.687512      0.766184     -2.394940
  C       1.525945      0.279349     -1.387979
  C       2.737735     -0.068240     -2.058605
  S       0.898470     -0.304327     -3.829753
  C       2.548706     -0.400772     -3.363113
  H       1.527827      1.234041     -0.656955
  H       3.714370     -0.018138     -1.599586
  H       3.294416     -0.675097     -4.093791
  H      -0.727059     -3.210251     -0.233722
  H      -0.789332     -2.397886      2.360298
  H       1.676134     -1.529365      2.997194
  O       1.407631      2.437993      0.180394
  O       0.546725      0.958725      1.606315
  C       0.959075      2.134196      1.287558
  C       0.893807      3.152605      2.390804
  H       0.854672      4.159787      1.984901
  H       1.797209      3.073439      2.998598
  H       0.044193      2.980316      3.047800
  H       3.273487     -1.871505      0.876192
  H       1.766293     -2.888594     -1.143445
