39
Coordinates from ORCA-job reaction4-IEIP_ts_guess_scan_6-14_orca E -1288.400090023646
  Ir      0.592681     -0.732890      0.488010
  C       0.092213     -2.829661      0.362958
  C      -0.044869     -2.364814      1.720044
  C       2.163046     -2.102824      1.088769
  C       1.434745     -2.654171     -0.027906
  C       1.251986     -1.956149      2.157411
  N      -1.052055      0.120128     -0.499367
  C      -2.337883      0.350768      0.181843
  C      -3.119489      1.533886     -0.371648
  H      -3.955549      1.745894      0.293284
  H      -3.547764      1.337596     -1.355445
  H      -2.509690      2.435813     -0.427741
  C      -3.166953     -0.928034      0.151489
  H      -2.074271      0.574323      1.216592
  H      -4.085102     -0.788708      0.720733
  H      -3.445077     -1.192224     -0.869659
  H      -2.636009     -1.771701      0.589649
  C      -0.883066      0.406401     -1.734155
  C       0.441469      0.246806     -2.259536
  H      -1.695811      0.780213     -2.350412
  C       1.541212      0.253900     -1.413441
  C       2.727784     -0.035753     -2.141226
  S       0.850391     -0.055976     -3.887868
  C       2.503276     -0.213827     -3.474775
  H       1.628000      1.222619     -0.542698
  H       3.716646     -0.052866     -1.706575
  H       3.231320     -0.410554     -4.247296
  H      -0.697868     -3.229731     -0.255808
  H      -0.934420     -2.407368      2.330621
  H       1.480228     -1.531001      3.124663
  O       1.673545      2.288378      0.200325
  O       0.538457      0.995004      1.601040
  C       1.086572      2.096929      1.277855
  C       1.033795      3.200506      2.291639
  H       0.950846      4.167729      1.801772
  H       1.966811      3.203308      2.858195
  H       0.215114      3.063231      2.992821
  H       3.217932     -1.876377      1.114762
  H       1.847177     -2.889613     -0.998178
39
Coordinates from ORCA-job reaction4-IEIP_ts_guess_scan_6-14_orca E -1288.400266062318
  Ir      0.595781     -0.734754      0.489192
  C       0.090727     -2.832402      0.368424
  C      -0.047628     -2.366854      1.724836
  C       2.161508     -2.107959      1.096249
  C       1.434126     -2.659941     -0.020543
  C       1.248588     -1.958609      2.163171
  N      -1.051466      0.118996     -0.501136
  C      -2.336225      0.350100      0.180700
  C      -3.118246      1.531639     -0.375480
  H      -3.954736      1.744561      0.288587
  H      -3.545699      1.332963     -1.359185
  H      -2.508915      2.433792     -0.433202
  C      -3.164223     -0.929385      0.153257
  H      -2.071849      0.575649      1.214832
  H      -4.082155     -0.789691      0.722732
  H      -3.442717     -1.195796     -0.867217
  H      -2.632232     -1.771692      0.592865
  C      -0.884741      0.406792     -1.738566
  C       0.440207      0.253443     -2.268273
  H      -1.698959      0.783178     -2.351316
  C       1.536475      0.247626     -1.418425
  C       2.724056     -0.038009     -2.146919
  S       0.851211     -0.036410     -3.898264
  C       2.502670     -0.201876     -3.482715
  H       1.626569      1.226133     -0.543737
  H       3.712011     -0.060941     -1.710450
  H       3.232276     -0.392349     -4.255222
  H      -0.698892     -3.232329     -0.251042
  H      -0.937954     -2.408177      2.334236
  H       1.475920     -1.532826      3.130344
  O       1.675865      2.292180      0.198633
  O       0.539001      0.996068      1.603202
  C       1.088542      2.098320      1.279081
  C       1.036108      3.201902      2.292512
  H       0.951525      4.169074      1.802712
  H       1.969869      3.205661      2.857806
  H       0.218384      3.063652      2.994517
  H       3.216852     -1.884031      1.124082
  H       1.847737     -2.898510     -0.989538
39
Coordinates from ORCA-job reaction4-IEIP_ts_guess_scan_6-14_orca E -1288.400384032192
  Ir      0.593818     -0.735420      0.490785
  C       0.081874     -2.833081      0.381234
  C      -0.057041     -2.364140      1.735753
  C       2.153174     -2.111017      1.108012
  C       1.426254     -2.665939     -0.006984
  C       1.238303     -1.955636      2.173093
  N      -1.049143      0.114236     -0.501055
  C      -2.334755      0.342701      0.179641
  C      -3.118772      1.523464     -0.375616
  H      -3.956304      1.734109      0.287884
  H      -3.544915      1.324968     -1.359890
  H      -2.511122      2.426853     -0.431856
  C      -3.160926     -0.937982      0.150948
  H      -2.071332      0.567407      1.214216
  H      -4.079500     -0.800154      0.719913
  H      -3.438292     -1.204173     -0.869875
  H      -2.627779     -1.779538      0.590440
  C      -0.882146      0.407959     -1.738825
  C       0.442405      0.260349     -2.275019
  H      -1.697616      0.788373     -2.347016
  C       1.537111      0.230872     -1.423753
  C       2.724868     -0.040614     -2.158049
  S       0.854258      0.009572     -3.910764
  C       2.504438     -0.173170     -3.497306
  H       1.633614      1.222649     -0.544101
  H       3.712528     -0.076327     -1.721668
  H       3.234403     -0.348016     -4.273092
  H      -0.707788     -3.233549     -0.237807
  H      -0.948045     -2.401877      2.344232
  H       1.465218     -1.526667      3.138948
  O       1.689519      2.289704      0.196351
  O       0.536419      0.999706      1.600181
  C       1.094382      2.097674      1.276534
  C       1.044880      3.203435      2.286693
  H       0.965730      4.170041      1.794787
  H       1.977349      3.204259      2.854153
  H       0.224667      3.069742      2.986519
  H       3.209209     -1.890722      1.137219
  H       1.840426     -2.910861     -0.974117
39
Coordinates from ORCA-job reaction4-IEIP_ts_guess_scan_6-14_orca E -1288.400436628973
  Ir      0.594808     -0.739175      0.494073
  C       0.076607     -2.835882      0.396976
  C      -0.062066     -2.361333      1.749221
  C       2.149382     -2.116587      1.121343
  C       1.421963     -2.674733      0.008595
  C       1.233511     -1.953385      2.184751
  N      -1.048766      0.110306     -0.502643
  C      -2.336550      0.334319      0.176189
  C      -3.120825      1.517089     -0.374458
  H      -3.959674      1.723576      0.288634
  H      -3.545200      1.323027     -1.360377
  H      -2.513987      2.421358     -0.425187
  C      -3.162743     -0.946264      0.139652
  H      -2.075874      0.554243      1.212510
  H      -4.083015     -0.810867      0.706461
  H      -3.437087     -1.208015     -0.883134
  H      -2.631086     -1.789652      0.577094
  C      -0.881657      0.412131     -1.738334
  C       0.440875      0.268413     -2.278131
  H      -1.698407      0.794947     -2.343188
  C       1.534607      0.217736     -1.426885
  C       2.722399     -0.041725     -2.164752
  S       0.853330      0.050002     -3.917998
  C       2.503212     -0.140944     -3.507264
  H       1.638116      1.216578     -0.545396
  H       3.709378     -0.091194     -1.728200
  H       3.233755     -0.299968     -4.285900
  H      -0.713533     -3.237181     -0.220902
  H      -0.953531     -2.394048      2.357278
  H       1.460952     -1.520215      3.148618
  O       1.700948      2.284920      0.192639
  O       0.539374      1.002780      1.596731
  C       1.102228      2.096447      1.272414
  C       1.057368      3.205774      2.278410
  H       0.980951      4.171048      1.783471
  H       1.990323      3.205565      2.845075
  H       0.237121      3.076741      2.979044
  H       3.206160     -1.900069      1.151088
  H       1.836004     -2.926573     -0.956777
39
Coordinates from ORCA-job reaction4-IEIP_ts_guess_scan_6-14_orca E -1288.400455452260
  Ir      0.593605     -0.742042      0.495933
  C       0.071447     -2.837058      0.409073
  C      -0.067819     -2.357281      1.759261
  C       2.144981     -2.119384      1.132227
  C       1.417860     -2.680506      0.021009
  C       1.227875     -1.949511      2.193778
  N      -1.048316      0.106765     -0.503549
  C      -2.337993      0.325452      0.174180
  C      -3.123359      1.510385     -0.370423
  H      -3.962761      1.711942      0.293407
  H      -3.547135      1.321436     -1.357615
  H      -2.517683      2.415739     -0.415692
  C      -3.163128     -0.955537      0.128997
  H      -2.079799      0.540079      1.212277
  H      -4.085173     -0.823508      0.693691
  H      -3.434217     -1.212436     -0.895894
  H      -2.632388     -1.800863      0.563861
  C      -0.880510      0.417211     -1.736372
  C       0.440170      0.276996     -2.278139
  H      -1.697925      0.802964     -2.338559
  C       1.534062      0.206746     -1.428729
  C       2.721474     -0.042416     -2.169458
  S       0.854374      0.097920     -3.922210
  C       2.501618     -0.117462     -3.513827
  H       1.644562      1.208747     -0.546064
  H       3.707623     -0.108166     -1.733323
  H       3.231433     -0.268213     -4.294813
  H      -0.718624     -3.239327     -0.208253
  H      -0.960037     -2.385441      2.366458
  H       1.455364     -1.512260      3.155806
  O       1.714125      2.278073      0.189941
  O       0.540329      1.006043      1.590838
  C       1.109735      2.094784      1.267473
  C       1.068133      3.208465      2.269055
  H       0.995721      4.172091      1.770360
  H       2.000599      3.207159      2.836492
  H       0.246684      3.085152      2.969347
  H       3.202264     -1.905505      1.162879
  H       1.832200     -2.938045     -0.942684
39
Coordinates from ORCA-job reaction4-IEIP_ts_guess_scan_6-14_orca E -1288.400460996390
  Ir      0.591650     -0.743597      0.496609
  C       0.068936     -2.837419      0.411458
  C      -0.071892     -2.356001      1.760995
  C       2.142021     -2.120302      1.136545
  C       1.416135     -2.682023      0.024847
  C       1.223622     -1.948525      2.196665
  N      -1.047703      0.105819     -0.502840
  C      -2.337669      0.323010      0.175013
  C      -3.123373      1.508817     -0.367329
  H      -3.962321      1.709026      0.297461
  H      -3.547818      1.321641     -1.354582
  H      -2.517850      2.414337     -0.411369
  C      -3.162370     -0.958097      0.127192
  H      -2.079968      0.536093      1.213564
  H      -4.085127     -0.827009      0.690951
  H      -3.432146     -1.213723     -0.898366
  H      -2.632096     -1.804070      0.561516
  C      -0.879343      0.418456     -1.734689
  C       0.440485      0.277010     -2.276488
  H      -1.696621      0.804728     -2.336809
  C       1.535282      0.200622     -1.428746
  C       2.722655     -0.042077     -2.170933
  S       0.853827      0.102776     -3.921582
  C       2.502492     -0.104372     -3.516209
  H       1.648103      1.201790     -0.546305
  H       3.709035     -0.109641     -1.735735
  H       3.232466     -0.245895     -4.298809
  H      -0.720382     -3.239915     -0.206679
  H      -0.964999     -2.382587      2.366979
  H       1.450278     -1.510024      3.158326
  O       1.719545      2.271946      0.188312
  O       0.539424      1.006080      1.587568
  C       1.112037      2.092551      1.264297
  C       1.070801      3.209112      2.263172
  H       0.999649      4.171394      1.761734
  H       2.002928      3.208480      2.831141
  H       0.248791      3.088719      2.963338
  H       3.199386     -1.906984      1.168537
  H       1.831498     -2.940959     -0.938011
39
Coordinates from ORCA-job reaction4-IEIP_ts_guess_scan_6-14_orca E -1288.400466076718
  Ir      0.592232     -0.743464      0.496159
  C       0.071600     -2.837709      0.408176
  C      -0.070389     -2.357352      1.758097
  C       2.143725     -2.119439      1.135339
  C       1.418879     -2.680705      0.022643
  C       1.224720     -1.949440      2.195098
  N      -1.048301      0.106670     -0.502874
  C      -2.337771      0.324530      0.175598
  C      -3.123021      1.510471     -0.367072
  H      -3.961658      1.711386      0.297925
  H      -3.547786      1.323113     -1.354146
  H      -2.517032      2.415642     -0.411660
  C      -3.162942     -0.956282      0.128408
  H      -2.079568      0.538006      1.213920
  H      -4.085599     -0.824627      0.692226
  H      -3.432945     -1.212250     -0.897001
  H      -2.633012     -1.802287      0.562967
  C      -0.880308      0.418358     -1.735194
  C       0.439892      0.276770     -2.276297
  H      -1.697389      0.804468     -2.337629
  C       1.534608      0.203775     -1.428327
  C       2.721965     -0.042550     -2.169263
  S       0.853722      0.097339     -3.920939
  C       2.501773     -0.111341     -3.514281
  H       1.646938      1.203100     -0.546102
  H       3.708272     -0.108551     -1.733648
  H       3.231713     -0.256977     -4.296159
  H      -0.716946     -3.240439     -0.210795
  H      -0.963795     -2.385244      2.363583
  H       1.450493     -1.511720      3.157320
  O       1.717843      2.273057      0.188857
  O       0.539313      1.005722      1.588296
  C       1.110933      2.093164      1.264913
  C       1.068738      3.209075      2.264482
  H       0.995594      4.171397      1.763393
  H       2.001390      3.209674      2.831587
  H       0.247570      3.087189      2.965359
  H       3.200863     -1.905085      1.168026
  H       1.835057     -2.938256     -0.940243
39
Coordinates from ORCA-job reaction4-IEIP_ts_guess_scan_6-14_orca E -1288.400467341860
  Ir      0.592149     -0.743545      0.496102
  C       0.072925     -2.837967      0.406457
  C      -0.071198     -2.358057      1.756389
  C       2.143706     -2.118824      1.136940
  C       1.420712     -2.680065      0.023043
  C       1.223131     -1.949714      2.195447
  N      -1.048469      0.107103     -0.502571
  C      -2.337735      0.324616      0.176269
  C      -3.123107      1.510731     -0.365919
  H      -3.961587      1.711416      0.299353
  H      -3.548011      1.323731     -1.352997
  H      -2.517107      2.415902     -0.410309
  C      -3.162729     -0.956264      0.128551
  H      -2.079415      0.537849      1.214598
  H      -4.085603     -0.824875      0.692089
  H      -3.432365     -1.212038     -0.897002
  H      -2.632896     -1.802376      0.563024
  C      -0.880722      0.419106     -1.734962
  C       0.439461      0.277519     -2.276112
  H      -1.697759      0.805609     -2.337173
  C       1.534281      0.203814     -1.428444
  C       2.721400     -0.043242     -2.169373
  S       0.853317      0.098459     -3.921019
  C       2.500868     -0.112438     -3.514405
  H       1.647902      1.202021     -0.545746
  H       3.707732     -0.109792     -1.733919
  H       3.230615     -0.258905     -4.296315
  H      -0.714385     -3.241093     -0.213830
  H      -0.965402     -2.386663      2.360662
  H       1.447343     -1.512229      3.158139
  O       1.719830      2.272003      0.189078
  O       0.538947      1.005936      1.587892
  C       1.111672      2.093054      1.264586
  C       1.068735      3.209422      2.263578
  H       0.993982      4.171249      1.761736
  H       2.001854      3.211644      2.829890
  H       0.248226      3.087077      2.965118
  H       3.200671     -1.903866      1.171223
  H       1.838401     -2.937117     -0.939326
