39
Generated by autodE on: 2023-08-13. E = -1288.395582 Ha
Ir    0.57508  -0.73199   0.47718
C     0.01806  -2.81006   0.35020
C     0.10566  -2.36736   1.72118
C     2.18716  -2.14726   0.76425
C     1.28065  -2.64595  -0.24585
C     1.47561  -2.01572   1.96881
N    -1.04344   0.16988  -0.51448
C    -2.31778   0.50530   0.14046
C    -3.13652   1.53993  -0.61432
H    -3.97126   1.85193   0.01177
H    -3.56937   1.14941  -1.53677
H    -2.55617   2.43328  -0.84739
C    -3.11648  -0.76790   0.39065
H    -2.02919   0.92993   1.10357
H    -4.03330  -0.52394   0.92513
H    -3.39654  -1.25089  -0.54650
H    -2.56864  -1.48363   1.00198
C    -0.82998   0.37609  -1.75614
C     0.52336   0.15622  -2.22150
H    -1.60620   0.73522  -2.42601
C     1.63045   0.53913  -1.47460
C     2.83091   0.12698  -2.12143
S     0.94081  -0.63264  -3.67991
C     2.61175  -0.50543  -3.30500
H     1.54401   1.40667  -0.66618
H     3.81989   0.34239  -1.74367
H     3.34533  -0.88808  -3.99849
H    -0.87463  -3.16610  -0.14369
H    -0.68100  -2.40386   2.46059
H     1.86741  -1.63156   2.89965
O     1.31535   2.44240   0.26933
O     0.53569   0.90147   1.68204
C     0.91196   2.09955   1.37831
C     0.85617   3.07791   2.51760
H     0.81593   4.09814   2.14589
H     1.76192   2.97683   3.11876
H     0.01039   2.88610   3.17460
H     3.23115  -1.91457   0.61485
H     1.53515  -2.85864  -1.27411
