39
Coordinates from ORCA-job reaction4-IEIP_ts_guess_scan_8-12_orca E -1288.402157114485
  Ir      0.606273     -0.727316      0.463186
  C       0.103434     -2.828491      0.355625
  C      -0.045532     -2.361560      1.709857
  C       2.168426     -2.094466      1.091634
  C       1.450625     -2.656095     -0.025128
  C       1.244553     -1.943281      2.153010
  N      -1.052165      0.124538     -0.507246
  C      -2.332868      0.346355      0.184686
  C      -3.124496      1.529075     -0.355282
  H      -3.957134      1.731606      0.316720
  H      -3.558181      1.336544     -1.337498
  H      -2.520250      2.434907     -0.409178
  C      -3.156954     -0.935836      0.151829
  H      -2.061682      0.563621      1.218853
  H      -4.071745     -0.803659      0.728135
  H      -3.440930     -1.194415     -0.869129
  H      -2.619602     -1.780033      0.580857
  C      -0.892452      0.430901     -1.735087
  C       0.427033      0.263644     -2.257843
  H      -1.703601      0.824073     -2.340756
  C       1.508438      0.195601     -1.388575
  C       2.701911     -0.086539     -2.112268
  S       0.856606      0.025465     -3.887701
  C       2.497728     -0.194624     -3.455537
  H       1.627153      1.183236     -0.553522
  H       3.682419     -0.147691     -1.662913
  H       3.234553     -0.372563     -4.224153
  H      -0.680009     -3.234808     -0.267471
  H      -0.940080     -2.402152      2.312907
  H       1.463901     -1.510590      3.118985
  O       1.689531      2.286217      0.184478
  O       0.543924      1.002356      1.578173
  C       1.094944      2.101270      1.257290
  C       1.034287      3.209190      2.266463
  H       0.984188      4.176704      1.773007
  H       1.949427      3.194290      2.861228
  H       0.192908      3.088717      2.943622
  H       3.223776     -1.872246      1.128591
  H       1.871010     -2.902755     -0.989109
39
Coordinates from ORCA-job reaction4-IEIP_ts_guess_scan_8-12_orca E -1288.402406005230
  Ir      0.605542     -0.728088      0.461508
  C       0.101736     -2.830906      0.358198
  C      -0.045060     -2.364630      1.712693
  C       2.166831     -2.096683      1.091484
  C       1.448121     -2.659180     -0.024139
  C       1.244088     -1.945088      2.153184
  N      -1.056034      0.122623     -0.506011
  C      -2.336494      0.344229      0.186536
  C      -3.127475      1.527444     -0.353312
  H      -3.960540      1.729692      0.318224
  H      -3.560408      1.335655     -1.336020
  H      -2.523042      2.433227     -0.406236
  C      -3.160864     -0.937701      0.152655
  H      -2.065530      0.560839      1.220883
  H      -4.075663     -0.805758      0.728990
  H      -3.444879     -1.195533     -0.868497
  H      -2.623769     -1.782312      0.581109
  C      -0.893615      0.430118     -1.738853
  C       0.430262      0.266395     -2.264058
  H      -1.704429      0.824267     -2.344300
  C       1.508789      0.191841     -1.391212
  C       2.704212     -0.089253     -2.112684
  S       0.865013      0.036809     -3.893837
  C       2.504118     -0.190789     -3.457194
  H       1.629074      1.190319     -0.555558
  H       3.683372     -0.153260     -1.660663
  H       3.243079     -0.366695     -4.224152
  H      -0.682390     -3.237921     -0.263621
  H      -0.938490     -2.405758      2.317239
  H       1.464424     -1.512161      3.118811
  O       1.694574      2.293990      0.181139
  O       0.543335      1.005702      1.578583
  C       1.097462      2.105834      1.256719
  C       1.037530      3.213310      2.266219
  H       0.986370      4.180998      1.773104
  H       1.953348      3.198616      2.859900
  H       0.196874      3.092095      2.944023
  H       3.222418     -1.875599      1.128040
  H       1.867478     -2.907497     -0.988151
39
Coordinates from ORCA-job reaction4-IEIP_ts_guess_scan_8-12_orca E -1288.402488604683
  Ir      0.604273     -0.728284      0.461726
  C       0.097469     -2.831369      0.365038
  C      -0.047575     -2.364649      1.719146
  C       2.163296     -2.098219      1.095523
  C       1.443735     -2.661927     -0.018605
  C       1.240991     -1.944612      2.157101
  N      -1.057046      0.121150     -0.505249
  C      -2.337666      0.341299      0.185930
  C      -3.128951      1.523603     -0.355411
  H      -3.963589      1.725056      0.314450
  H      -3.559544      1.331186     -1.339014
  H      -2.525340      2.429967     -0.407312
  C      -3.160476     -0.941607      0.151651
  H      -2.067585      0.558320      1.220407
  H      -4.075800     -0.810773      0.727457
  H      -3.443497     -1.199934     -0.869617
  H      -2.622482     -1.785453      0.580575
  C      -0.893945      0.430950     -1.739479
  C       0.430805      0.270690     -2.268320
  H      -1.705693      0.825624     -2.343097
  C       1.507305      0.185857     -1.393961
  C       2.703847     -0.090895     -2.115206
  S       0.867762      0.052862     -3.898920
  C       2.506547     -0.176704     -3.461333
  H       1.630252      1.193872     -0.558628
  H       3.682082     -0.159817     -1.661900
  H       3.247052     -0.344647     -4.228577
  H      -0.687441     -3.238684     -0.255581
  H      -0.940464     -2.404449      2.324517
  H       1.462210     -1.510467      3.121983
  O       1.700739      2.296932      0.178523
  O       0.543198      1.007388      1.576098
  C       1.100827      2.106298      1.254818
  C       1.044104      3.212958      2.264498
  H       0.992726      4.180943      1.771938
  H       1.961192      3.197168      2.856198
  H       0.204578      3.091783      2.943587
  H       3.219282     -1.879121      1.132034
  H       1.862193     -2.913106     -0.982250
39
Coordinates from ORCA-job reaction4-IEIP_ts_guess_scan_8-12_orca E -1288.402542847399
  Ir      0.603146     -0.729356      0.462901
  C       0.093523     -2.832380      0.374682
  C      -0.050732     -2.364280      1.727986
  C       2.159874     -2.099827      1.102851
  C       1.440092     -2.665550     -0.009799
  C       1.237194     -1.943363      2.163790
  N      -1.057688      0.118615     -0.506132
  C      -2.339455      0.336090      0.183330
  C      -3.131972      1.518138     -0.356914
  H      -3.967931      1.717184      0.312017
  H      -3.560805      1.326735     -1.341454
  H      -2.529618      2.425465     -0.406397
  C      -3.160857     -0.947703      0.146779
  H      -2.070820      0.551926      1.218482
  H      -4.076928     -0.818628      0.721825
  H      -3.442442     -1.205202     -0.875078
  H      -2.622289     -1.791293      0.575354
  C      -0.893912      0.433303     -1.739630
  C       0.430461      0.277891     -2.271814
  H      -1.706597      0.829841     -2.340539
  C       1.504988      0.177922     -1.396729
  C       2.702436     -0.091805     -2.118840
  S       0.871022      0.088865     -3.904698
  C       2.506755     -0.160937     -3.466289
  H       1.631819      1.195513     -0.562192
  H       3.679433     -0.171478     -1.664670
  H       3.247797     -0.323242     -4.234236
  H      -0.691755     -3.240436     -0.244967
  H      -0.943587     -2.401914      2.333486
  H       1.458806     -1.507068      3.127632
  O       1.708996      2.297344      0.176126
  O       0.543626      1.010431      1.572553
  C       1.106017      2.106259      1.252407
  C       1.054163      3.213520      2.261105
  H       1.002622      4.181286      1.768110
  H       1.973182      3.196898      2.849796
  H       0.216440      3.093729      2.942617
  H       3.216262     -1.882860      1.139926
  H       1.858105     -2.920440     -0.972639
39
Coordinates from ORCA-job reaction4-IEIP_ts_guess_scan_8-12_orca E -1288.402585407401
  Ir      0.601437     -0.732774      0.465583
  C       0.086804     -2.834517      0.388544
  C      -0.057563     -2.362961      1.740282
  C       2.154060     -2.104010      1.115227
  C       1.434424     -2.672427      0.004167
  C       1.230094     -1.941997      2.174614
  N      -1.057399      0.115262     -0.507974
  C      -2.341112      0.328716      0.179593
  C      -3.135781      1.510689     -0.357801
  H      -3.972765      1.705931      0.310892
  H      -3.563422      1.321309     -1.343247
  H      -2.535259      2.419423     -0.404012
  C      -3.160698     -0.956189      0.139217
  H      -2.074564      0.542361      1.215827
  H      -4.077947     -0.829588      0.712924
  H      -3.440017     -1.212127     -0.883659
  H      -2.621672     -1.799729      0.567169
  C      -0.893025      0.437125     -1.739102
  C       0.429337      0.285109     -2.274492
  H      -1.706801      0.835758     -2.337097
  C       1.501888      0.164385     -1.399622
  C       2.700375     -0.092861     -2.124112
  S       0.872049      0.124923     -3.909544
  C       2.507880     -0.127380     -3.473523
  H       1.634432      1.191763     -0.567279
  H       3.676183     -0.185051     -1.669866
  H       3.250622     -0.271421     -4.243499
  H      -0.698647     -3.243221     -0.230450
  H      -0.951184     -2.396070      2.344858
  H       1.451813     -1.502170      3.136851
  O       1.720352      2.292546      0.171637
  O       0.545286      1.013868      1.567245
  C       1.114188      2.104506      1.247648
  C       1.069331      3.214899      2.253220
  H       1.017244      4.181381      1.757760
  H       1.991303      3.198467      2.837288
  H       0.234571      3.098566      2.938943
  H       3.211061     -1.890398      1.153645
  H       1.852493     -2.932908     -0.957114
39
Coordinates from ORCA-job reaction4-IEIP_ts_guess_scan_8-12_orca E -1288.402603738401
  Ir      0.600474     -0.734875      0.466474
  C       0.084876     -2.835422      0.392731
  C      -0.061765     -2.361482      1.743439
  C       2.151453     -2.104956      1.121691
  C       1.433521     -2.674868      0.010388
  C       1.225582     -1.940312      2.179333
  N      -1.056600      0.113346     -0.509270
  C      -2.340625      0.325153      0.178778
  C      -3.136105      1.507533     -0.356420
  H      -3.972562      1.701244      0.313322
  H      -3.564564      1.319514     -1.341805
  H      -2.536071      2.416656     -0.401656
  C      -3.159720     -0.959967      0.136409
  H      -2.074391      0.537514      1.215379
  H      -4.077438     -0.834182      0.709510
  H      -3.438155     -1.214891     -0.886972
  H      -2.620905     -1.803900      0.563884
  C      -0.892572      0.439438     -1.738479
  C       0.428548      0.288494     -2.274061
  H      -1.706385      0.840546     -2.334930
  C       1.500976      0.158630     -1.400459
  C       2.699526     -0.092398     -2.126670
  S       0.872647      0.147964     -3.910573
  C       2.506994     -0.115333     -3.476440
  H       1.636274      1.186362     -0.568895
  H       3.674873     -0.192253     -1.673086
  H       3.249484     -0.254696     -4.247524
  H      -0.699550     -3.244756     -0.227149
  H      -0.956700     -2.392402      2.346189
  H       1.445990     -1.498500      3.140959
  O       1.725342      2.286920      0.169984
  O       0.544823      1.014580      1.563747
  C       1.117056      2.102676      1.244772
  C       1.074167      3.215392      2.248409
  H       1.021492      4.180821      1.750969
  H       1.997218      3.200126      2.830790
  H       0.240583      3.100932      2.935866
  H       3.208526     -1.892007      1.161769
  H       1.853051     -2.937451     -0.949667
39
Coordinates from ORCA-job reaction4-IEIP_ts_guess_scan_8-12_orca E -1288.402609286384
  Ir      0.600033     -0.736836      0.466995
  C       0.084845     -2.836723      0.394260
  C      -0.064675     -2.360515      1.744069
  C       2.150179     -2.105506      1.126688
  C       1.434455     -2.676685      0.014622
  C       1.222212     -1.939092      2.182403
  N      -1.056443      0.112067     -0.509828
  C      -2.340433      0.322932      0.179166
  C      -3.135781      1.506486     -0.353617
  H      -3.971553      1.699203      0.317270
  H      -3.565169      1.320389     -1.338968
  H      -2.535559      2.415549     -0.397678
  C      -3.159973     -0.961774      0.134178
  H      -2.074213      0.533575      1.216098
  H      -4.078188     -0.836329      0.706570
  H      -3.437600     -1.215064     -0.889826
  H      -2.622177     -1.806720      0.560845
  C      -0.892561      0.441184     -1.737908
  C       0.427990      0.289688     -2.273057
  H      -1.705917      0.844338     -2.333587
  C       1.500830      0.154693     -1.400740
  C       2.699205     -0.091977     -2.128393
  S       0.872252      0.158768     -3.910557
  C       2.506351     -0.107332     -3.478333
  H       1.638481      1.180383     -0.569246
  H       3.674502     -0.195677     -1.675584
  H       3.248687     -0.242667     -4.250280
  H      -0.698120     -3.246978     -0.226853
  H      -0.960951     -2.390237      2.344909
  H       1.440828     -1.495862      3.143776
  O       1.729049      2.281524      0.168581
  O       0.544390      1.014578      1.561557
  C       1.119106      2.101209      1.242338
  C       1.076290      3.215941      2.244066
  H       1.021944      4.180208      1.744521
  H       2.000195      3.203000      2.825112
  H       0.243739      3.102284      2.932885
  H       3.207159     -1.892384      1.168526
  H       1.855963     -2.940450     -0.944240
39
Coordinates from ORCA-job reaction4-IEIP_ts_guess_scan_8-12_orca E -1288.402610353227
  Ir      0.599742     -0.737557      0.467002
  C       0.085153     -2.837395      0.394306
  C      -0.066777     -2.359842      1.743520
  C       2.149217     -2.105384      1.129938
  C       1.435463     -2.677412      0.017078
  C       1.219446     -1.938194      2.183992
  N      -1.056467      0.111702     -0.509634
  C      -2.340314      0.321799      0.179906
  C      -3.135657      1.506070     -0.351376
  H      -3.971219      1.697994      0.320009
  H      -3.565264      1.321234     -1.336864
  H      -2.535428      2.415177     -0.394422
  C      -3.159823     -0.962824      0.133018
  H      -2.074060      0.531279      1.217039
  H      -4.078398     -0.837978      0.704983
  H      -3.436868     -1.214936     -0.891429
  H      -2.622417     -1.808398      0.558963
  C      -0.892672      0.442297     -1.737443
  C       0.427785      0.290477     -2.272673
  H      -1.705754      0.846685     -2.332617
  C       1.500861      0.152775     -1.401148
  C       2.698956     -0.092098     -2.129685
  S       0.871784      0.163749     -3.910772
  C       2.505776     -0.103708     -3.479690
  H       1.640627      1.176873     -0.568934
  H       3.674292     -0.197611     -1.677385
  H       3.247972     -0.237235     -4.252085
  H      -0.696529     -3.248450     -0.227886
  H      -0.964037     -2.389270      2.342920
  H       1.436394     -1.494283      3.145421
  O       1.732257      2.278585      0.167908
  O       0.544016      1.014660      1.560371
  C       1.120657      2.100528      1.240900
  C       1.077294      3.216192      2.241526
  H       1.021017      4.179742      1.740753
  H       2.001923      3.205388      2.821439
  H       0.245619      3.102260      2.931314
  H       3.206073     -1.891935      1.173325
  H       1.858730     -2.941767     -0.940847
39
Coordinates from ORCA-job reaction4-IEIP_ts_guess_scan_8-12_orca E -1288.402611267781
  Ir      0.599608     -0.738234      0.466956
  C       0.086642     -2.838545      0.393964
  C      -0.069633     -2.359314      1.742292
  C       2.148152     -2.104644      1.135442
  C       1.438083     -2.678122      0.021066
  C       1.215053     -1.936911      2.186532
  N      -1.056762      0.111381     -0.509004
  C      -2.340496      0.320257      0.181030
  C      -3.135501      1.505911     -0.347786
  H      -3.971087      1.696488      0.323959
  H      -3.564895      1.323424     -1.333795
  H      -2.535087      2.414998     -0.388614
  C      -3.160220     -0.964072      0.130680
  H      -2.074359      0.527563      1.218606
  H      -4.079349     -0.840313      0.702025
  H      -3.436372     -1.213867     -0.894571
  H      -2.623517     -1.810849      0.555110
  C      -0.893122      0.443757     -1.736615
  C       0.427185      0.291671     -2.272461
  H      -1.705979      0.849708     -2.330962
  C       1.500635      0.150194     -1.402145
  C       2.698152     -0.092733     -2.132088
  S       0.870354      0.169933     -3.911419
  C       2.504250     -0.099513     -3.482110
  H       1.644316      1.172112     -0.567943
  H       3.673644     -0.200472     -1.680650
  H       3.246137     -0.230897     -4.255165
  H      -0.692651     -3.251170     -0.230162
  H      -0.968513     -2.389010      2.339268
  H       1.428809     -1.492151      3.148280
  O       1.737889      2.274682      0.167370
  O       0.543693      1.014960      1.558941
  C       1.123371      2.099633      1.239138
  C       1.078915      3.216557      2.238108
  H       1.018288      4.178996      1.735592
  H       2.005197      3.210020      2.815412
  H       0.249264      3.101276      2.930024
  H       3.204724     -1.890395      1.181703
  H       1.864550     -2.943120     -0.935266
39
Coordinates from ORCA-job reaction4-IEIP_ts_guess_scan_8-12_orca E -1288.402611730971
  Ir      0.599641     -0.738263      0.466827
  C       0.088659     -2.839311      0.392842
  C      -0.072361     -2.359261      1.740461
  C       2.147206     -2.103320      1.140909
  C       1.441255     -2.678037      0.024690
  C       1.210393     -1.935867      2.188840
  N      -1.056983      0.111471     -0.508233
  C      -2.340736      0.319012      0.182000
  C      -3.135467      1.506021     -0.344283
  H      -3.971307      1.695070      0.327570
  H      -3.564357      1.325978     -1.330954
  H      -2.534911      2.415122     -0.382618
  C      -3.160518     -0.965132      0.128209
  H      -2.074823      0.524010      1.220082
  H      -4.079958     -0.842839      0.699383
  H      -3.436151     -1.212369     -0.897803
  H      -2.624050     -1.813078      0.550644
  C      -0.893637      0.444872     -1.735776
  C       0.426352      0.292772     -2.272595
  H      -1.706587      0.851693     -2.329376
  C       1.500138      0.148403     -1.403366
  C       2.697016     -0.093805     -2.134498
  S       0.868419      0.173985     -3.912212
  C       2.502276     -0.097367     -3.484460
  H       1.647838      1.168532     -0.566673
  H       3.672697     -0.203159     -1.683851
  H       3.243761     -0.227682     -4.258078
  H      -0.688035     -3.253429     -0.233512
  H      -0.972963     -2.389829      2.334802
  H       1.420504     -1.490618      3.151167
  O       1.743465      2.271695      0.167487
  O       0.543696      1.015517      1.557953
  C       1.126091      2.098973      1.238079
  C       1.080680      3.217067      2.235530
  H       1.014632      4.178437      1.731534
  H       2.009128      3.215443      2.809355
  H       0.253742      3.099785      2.930278
  H       3.203439     -1.888157      1.190450
  H       1.871187     -2.943147     -0.930065
39
Coordinates from ORCA-job reaction4-IEIP_ts_guess_scan_8-12_orca E -1288.402612914753
  Ir      0.599947     -0.737927      0.466774
  C       0.092265     -2.840067      0.390475
  C      -0.075476     -2.360137      1.737444
  C       2.146409     -2.101009      1.148071
  C       1.446397     -2.677035      0.028996
  C       1.204304     -1.935037      2.191711
  N      -1.057281      0.111650     -0.507200
  C      -2.341155      0.317624      0.183105
  C      -3.135095      1.506711     -0.339699
  H      -3.971381      1.693845      0.332114
  H      -3.563184      1.330243     -1.327358
  H      -2.534030      2.415616     -0.374455
  C      -3.161389     -0.966043      0.124681
  H      -2.075637      0.519273      1.221945
  H      -4.080863     -0.845743      0.696224
  H      -3.436961     -1.209416     -0.902279
  H      -2.625088     -1.815745      0.543821
  C      -0.894526      0.445670     -1.734701
  C       0.424859      0.293779     -2.272968
  H      -1.707938      0.852836     -2.327454
  C       1.499096      0.146805     -1.404983
  C       2.695144     -0.095538     -2.137375
  S       0.865361      0.176848     -3.913202
  C       2.499238     -0.096717     -3.487204
  H       1.651680      1.165078     -0.565063
  H       3.671094     -0.206303     -1.687650
  H       3.240116     -0.226626     -4.261471
  H      -0.680761     -3.255963     -0.239207
  H      -0.978513     -2.392510      2.327984
  H       1.409109     -1.489540      3.155072
  O       1.749863      2.268678      0.168100
  O       0.544105      1.016350      1.557197
  C       1.129295      2.098290      1.237398
  C       1.083008      3.218020      2.232882
  H       1.008305      4.177887      1.727094
  H       2.015056      3.223791      2.800786
  H       0.260741      3.097460      2.932516
  H       3.202115     -1.884461      1.202405
  H       1.881140     -2.941447     -0.923786
39
Coordinates from ORCA-job reaction4-IEIP_ts_guess_scan_8-12_orca E -1288.402614684220
  Ir      0.600316     -0.737397      0.466879
  C       0.096143     -2.840370      0.387218
  C      -0.078211     -2.361843      1.733921
  C       2.145821     -2.098511      1.154520
  C       1.451741     -2.675237      0.032324
  C       1.198491     -1.934944      2.194113
  N      -1.057456      0.111760     -0.506288
  C      -2.341462      0.316497      0.184092
  C      -3.134375      1.507754     -0.335299
  H      -3.971010      1.693246      0.336520
  H      -3.561872      1.334872     -1.323846
  H      -2.532568      2.416285     -0.366690
  C      -3.162346     -0.966575      0.121443
  H      -2.076293      0.514816      1.223665
  H      -4.081381     -0.848219      0.694083
  H      -3.438649     -1.205969     -0.906264
  H      -2.625902     -1.818063      0.536830
  C      -0.895464      0.445718     -1.733807
  C       0.423275      0.294137     -2.273357
  H      -1.709562      0.852448     -2.325972
  C       1.497914      0.146016     -1.406244
  C       2.693287     -0.097309     -2.139408
  S       0.862460      0.177139     -3.913897
  C       2.496400     -0.097996     -3.489100
  H       1.654094      1.163224     -0.564122
  H       3.669459     -0.208750     -1.690328
  H       3.236691     -0.228352     -4.263853
  H      -0.673321     -3.257476     -0.246005
  H      -0.983738     -2.396252      2.320514
  H       1.397987     -1.489649      3.158687
  O       1.754288      2.266898      0.168658
  O       0.544883      1.017210      1.556886
  C       1.131707      2.097961      1.237193
  C       1.085192      3.219295      2.230907
  H       1.000877      4.177610      1.723579
  H       2.021364      3.232789      2.791820
  H       0.268499      3.095168      2.936370
  H       3.200984     -1.880669      1.213788
  H       1.891105     -2.938072     -0.918788
39
Coordinates from ORCA-job reaction4-IEIP_ts_guess_scan_8-12_orca E -1288.402617576768
  Ir      0.600731     -0.736975      0.467239
  C       0.100395     -2.840449      0.383130
  C      -0.080639     -2.364432      1.729911
  C       2.145449     -2.095987      1.160581
  C       1.457451     -2.672875      0.034937
  C       1.192854     -1.935641      2.196245
  N      -1.057624      0.111557     -0.505440
  C      -2.341696      0.315512      0.185135
  C      -3.133104      1.509211     -0.330859
  H      -3.969920      1.693465      0.341066
  H      -3.560265      1.340067     -1.320198
  H      -2.530163      2.417086     -0.359060
  C      -3.163678     -0.966676      0.118457
  H      -2.076794      0.510437      1.225417
  H      -4.081873     -0.850035      0.692777
  H      -3.441409     -1.201870     -0.909842
  H      -2.627095     -1.820136      0.529661
  C      -0.896537      0.444987     -1.733051
  C       0.421644      0.293687     -2.273590
  H      -1.711424      0.850761     -2.324854
  C       1.496695      0.145693     -1.407018
  C       2.691558     -0.098950     -2.140594
  S       0.859822      0.175330     -3.914204
  C       2.493883     -0.100547     -3.490163
  H       1.654983      1.162739     -0.564220
  H       3.667925     -0.210414     -1.691943
  H       3.233619     -0.231780     -4.265299
  H      -0.665492     -3.258267     -0.253943
  H      -0.988817     -2.400947      2.312253
  H       1.386948     -1.490939      3.162198
  O       1.756570      2.266234      0.168639
  O       0.546031      1.017994      1.556827
  C       1.133336      2.097990      1.237046
  C       1.087223      3.220827      2.229207
  H       0.991773      4.177447      1.720557
  H       2.028229      3.242716      2.781661
  H       0.277353      3.092613      2.941733
  H       3.200050     -1.876950      1.225075
  H       1.901378     -2.933291     -0.914737
39
Coordinates from ORCA-job reaction4-IEIP_ts_guess_scan_8-12_orca E -1288.402621202594
  Ir      0.601041     -0.736796      0.467767
  C       0.104284     -2.840380      0.378771
  C      -0.082794     -2.367332      1.725864
  C       2.145098     -2.093861      1.165746
  C       1.462667     -2.670468      0.036758
  C       1.187754     -1.936902      2.197944
  N      -1.057772      0.111099     -0.504674
  C      -2.341796      0.314744      0.186243
  C      -3.131582      1.510760     -0.326808
  H      -3.968372      1.694270      0.345359
  H      -3.558712      1.344948     -1.316725
  H      -2.527384      2.417866     -0.352442
  C      -3.165017     -0.966479      0.116216
  H      -2.076997      0.506721      1.227086
  H      -4.082199     -0.851162      0.692410
  H      -3.444493     -1.197901     -0.912466
  H      -2.628331     -1.821794      0.523488
  C      -0.897561      0.443744     -1.732479
  C       0.420320      0.292530     -2.273545
  H      -1.713100      0.848436     -2.324165
  C       1.495765      0.145646     -1.407189
  C       2.690323     -0.100153     -2.140913
  S       0.857887      0.172170     -3.914080
  C       2.492124     -0.103484     -3.490388
  H       1.654413      1.163502     -0.565566
  H       3.666856     -0.211112     -1.692488
  H       3.231403     -0.235647     -4.265804
  H      -0.658364     -3.258431     -0.262023
  H      -0.993528     -2.405565      2.304089
  H       1.376974     -1.493063      3.165262
  O       1.756645      2.266680      0.167681
  O       0.547373      1.018619      1.556776
  C       1.134182      2.098418      1.236609
  C       1.088980      3.222281      2.227766
  H       0.981910      4.177278      1.718284
  H       2.035004      3.252366      2.771131
  H       0.286515      3.089708      2.947802
  H       3.199193     -1.873942      1.235214
  H       1.910662     -2.928121     -0.911773
39
Coordinates from ORCA-job reaction4-IEIP_ts_guess_scan_8-12_orca E -1288.402624869874
  Ir      0.601205     -0.736921      0.468317
  C       0.107239     -2.840410      0.375121
  C      -0.084498     -2.369812      1.722538
  C       2.144762     -2.092448      1.169637
  C       1.466656     -2.668683      0.037991
  C       1.183776     -1.938220      2.199182
  N      -1.057961      0.110547     -0.504015
  C      -2.341850      0.314276      0.187268
  C      -3.130240      1.512054     -0.323803
  H      -3.966897      1.695322      0.348612
  H      -3.557474      1.348601     -1.314067
  H      -2.524970      2.418482     -0.347775
  C      -3.166177     -0.966101      0.114929
  H      -2.077020      0.504238      1.228451
  H      -4.082566     -0.851524      0.692535
  H      -3.447056     -1.194836     -0.913968
  H      -2.629592     -1.822848      0.519368
  C      -0.898383      0.442460     -1.732075
  C       0.419506      0.291058     -2.273217
  H      -1.714242      0.846419     -2.323823
  C       1.495314      0.145606     -1.406892
  C       2.689734     -0.100711     -2.140720
  S       0.856756      0.168977     -3.913664
  C       2.491218     -0.105718     -3.490128
  H       1.652935      1.164968     -0.567828
  H       3.666419     -0.210914     -1.692430
  H       3.230175     -0.238449     -4.265754
  H      -0.652865     -3.258509     -0.268655
  H      -0.997312     -2.409079      2.297407
  H       1.369290     -1.495241      3.167608
  O       1.755166      2.267839      0.165880
  O       0.548650      1.018993      1.556554
  C       1.134478      2.099071      1.235753
  C       1.090400      3.223196      2.226697
  H       0.972819      4.176947      1.717096
  H       2.040900      3.260180      2.761697
  H       0.294809      3.086401      2.953504
  H       3.198478     -1.872029      1.243110
  H       1.917788     -2.923989     -0.909700
39
Coordinates from ORCA-job reaction4-IEIP_ts_guess_scan_8-12_orca E -1288.402627194370
  Ir      0.601205     -0.737149      0.468586
  C       0.108539     -2.840633      0.373373
  C      -0.085507     -2.370892      1.720864
  C       2.144444     -2.091917      1.171630
  C       1.468474     -2.668105      0.038747
  C       1.181669     -1.938822      2.199816
  N      -1.058126      0.110285     -0.503611
  C      -2.341890      0.314193      0.187866
  C      -3.129715      1.512621     -0.322594
  H      -3.966281      1.695939      0.349932
  H      -3.556998      1.349953     -1.312962
  H      -2.524023      2.418780     -0.346049
  C      -3.166675     -0.965825      0.114680
  H      -2.076965      0.503528      1.229125
  H      -4.082861     -0.851409      0.692652
  H      -3.447953     -1.193647     -0.914306
  H      -2.630294     -1.823145      0.518201
  C      -0.898746      0.441837     -1.731867
  C       0.419318      0.290089     -2.272862
  H      -1.714530      0.845748     -2.323726
  C       1.495367      0.145460     -1.406559
  C       2.689737     -0.100676     -2.140589
  S       0.856373      0.167385     -3.913330
  C       2.491034     -0.106388     -3.489952
  H       1.651724      1.166140     -0.569782
  H       3.666540     -0.210367     -1.692423
  H       3.229839     -0.239163     -4.265715
  H      -0.650236     -3.258914     -0.271843
  H      -0.999381     -2.410396      2.294037
  H       1.365410     -1.496304      3.168786
  O       1.753658      2.268864      0.164188
  O       0.549388      1.019094      1.556167
  C       1.134577      2.099562      1.234839
  C       1.091299      3.223231      2.226283
  H       0.967354      4.176497      1.717197
  H       2.044477      3.264021      2.756176
  H       0.299924      3.083484      2.957082
  H       3.197984     -1.871350      1.247135
  H       1.921215     -2.922420     -0.908449
39
Coordinates from ORCA-job reaction4-IEIP_ts_guess_scan_8-12_orca E -1288.402627991896
  Ir      0.601166     -0.737254      0.468580
  C       0.108867     -2.840931      0.373075
  C      -0.086014     -2.370921      1.720406
  C       2.144203     -2.091747      1.172515
  C       1.468976     -2.668231      0.039357
  C       1.180792     -1.938695      2.200139
  N      -1.058247      0.110361     -0.503438
  C      -2.341976      0.314265      0.188030
  C      -3.129861      1.512637     -0.322507
  H      -3.966462      1.695945      0.349979
  H      -3.557045      1.349889     -1.312903
  H      -2.524245      2.418849     -0.345940
  C      -3.166701     -0.965775      0.114718
  H      -2.077022      0.503670      1.229266
  H      -4.083089     -0.851348      0.692375
  H      -3.447663     -1.193652     -0.914343
  H      -2.630482     -1.823110      0.518416
  C      -0.898810      0.441900     -1.731757
  C       0.419349      0.289888     -2.272701
  H      -1.714403      0.846115     -2.323653
  C       1.495523      0.145271     -1.406512
  C       2.689818     -0.100550     -2.140817
  S       0.856165      0.167370     -3.913276
  C       2.490939     -0.106127     -3.490143
  H       1.651368      1.166569     -0.570693
  H       3.666700     -0.210168     -1.692799
  H       3.229677     -0.238747     -4.265996
  H      -0.649368     -3.259607     -0.272511
  H      -1.000215     -2.410396      2.293066
  H       1.363934     -1.496238      3.169248
  O       1.753158      2.269274      0.163326
  O       0.549644      1.019101      1.555829
  C       1.134813      2.099723      1.234302
  C       1.091931      3.222833      2.226332
  H       0.965202      4.176092      1.717864
  H       2.046289      3.265120      2.753965
  H       0.302408      3.081488      2.958793
  H       3.197679     -1.871102      1.248672
  H       1.922371     -2.922571     -0.907523
