! Opt PBEh-3c
%geom Constraints
{ B 0 20 2.5142857142857142 C }
{ B 24 30 1.3142857142857143 C }
    end
end
%output 
xyzfile=True 
end 
%scf 
maxiter 250 
end
%output
Print[P_Hirshfeld] = 1
end
% maxcore
4000
*xyz 1 1
Ir   0.57000097  -0.74363309   0.52453003 
C    0.01631168  -2.82128695   0.39502741 
C    0.04486881  -2.37027556   1.76453612 
C    2.16815167  -2.15743467   0.89655089 
C    1.30394800  -2.66104818  -0.14754082 
C    1.40256414  -2.01596155   2.06718219 
N   -1.03514449   0.13597644  -0.50023026 
C   -2.32187446   0.43835259   0.15076340 
C   -3.10743271   1.54385268  -0.53769819 
H   -3.94314628   1.83119982   0.09895989 
H   -3.53753132   1.23123018  -1.49036735 
H   -2.50140308   2.43539747  -0.70080953 
C   -3.14517409  -0.83753322   0.28076526 
H   -2.05412274   0.78234101   1.15124330 
H   -4.07175294  -0.62366043   0.81154753 
H   -3.40787720  -1.24074563  -0.69817777 
H   -2.62076024  -1.60821083   0.84382085 
C   -0.83744395   0.35101211  -1.74605823 
C    0.50397451   0.17841129  -2.24619900 
H   -1.63774160   0.68956923  -2.39844518 
C    1.61694381   0.46818339  -1.46905749 
C    2.80883262   0.12432486  -2.16434445 
S    0.90710332  -0.43230405  -3.79262735 
C    2.57765488  -0.36063648  -3.41607878 
H    1.55532675   1.36561889  -0.60289001 
H    3.80294565   0.28471753  -1.77284334 
H    3.30551850  -0.66222173  -4.15423270 
H   -0.85294525  -3.18245340  -0.13550067 
H   -0.77330955  -2.40204523   2.46900546 
H    1.75360158  -1.62567158   3.01170251 
O    1.41979243   2.38636982   0.23663367 
O    0.53887716   0.93286527   1.68165325 
C    0.96915419   2.09671808   1.35086909 
C    0.93080941   3.12792679   2.44058102 
H    0.87363498   4.12944191   2.02267509 
H    1.85415853   3.06365721   3.01979862 
H    0.10326957   2.95895646   3.12560654 
H    3.21909695  -1.93172304   0.79340772 
H    1.60048982  -2.88008739  -1.16301861 
*
