! Opt PBEh-3c
%geom Constraints
{ B 0 20 2.085714285714286 C }
{ B 24 30 1.457142857142857 C }
    end
end
%output 
xyzfile=True 
end 
%scf 
maxiter 250 
end
%output
Print[P_Hirshfeld] = 1
end
% maxcore
4000
*xyz 1 1
Ir   0.63032643  -0.71550278   0.41080182 
C    0.13398381  -2.83304300   0.33076113 
C   -0.00011455  -2.37471146   1.68783631 
C    2.19936867  -2.07895515   1.03814629 
C    1.47531497  -2.65487773  -0.06620430 
C    1.28384570  -1.93716395   2.11040622 
N   -1.05462913   0.13545380  -0.51809294 
C   -2.31702456   0.37727119   0.19616570 
C   -3.10978734   1.55899327  -0.34330443 
H   -3.93107471   1.77253732   0.33916840 
H   -3.55920198   1.35845427  -1.31685089 
H   -2.50154523   2.46092534  -0.41489348 
C   -3.14909409  -0.90068384   0.19554762 
H   -2.02049088   0.60250733   1.22150977 
H   -4.04815845  -0.75609723   0.79306554 
H   -3.45986675  -1.16761494  -0.81535552 
H   -2.60535050  -1.74300455   0.62016391 
C   -0.90595135   0.43622506  -1.75478796 
C    0.41615330   0.23855676  -2.27420351 
H   -1.71188360   0.84698757  -2.35448077 
C    1.46586053   0.12721532  -1.35626506 
C    2.68313467  -0.15859498  -2.05356062 
S    0.89356215   0.00896049  -3.88208305 
C    2.52088774  -0.24735936  -3.40035241 
H    1.56670860   1.14053891  -0.65815561 
H    3.64775648  -0.23429540  -1.57300026 
H    3.27755337  -0.42615129  -4.14906444 
H   -0.65339858  -3.24929404  -0.28076498 
H   -0.88812562  -2.41856778   2.29987090 
H    1.51015660  -1.49887783   3.07219498 
O    1.57367168   2.38019957   0.13449501 
O    0.56239600   0.99348157   1.55302279 
C    1.04521869   2.13354490   1.22519289 
C    0.96997567   3.20023421   2.28073894 
H    0.95802499   4.18939291   1.83075640 
H    1.85785736   3.13412980   2.91213955 
H    0.10109810   3.06917912   2.92124980 
H    3.25521605  -1.85863458   1.07007130 
H    1.88699578  -2.91216888  -1.03114489 
*
