39
Coordinates from ORCA-job reaction4-IEIP_ts_guess_scan_8-0_orca E -1288.400307149349
  Ir      0.622733     -0.699941      0.406777
  C       0.082231     -2.796534      0.327223
  C       0.121915     -2.338815      1.690950
  C       2.231937     -2.097805      0.786718
  C       1.362584     -2.633124     -0.235983
  C       1.472543     -1.948901      1.965242
  N      -1.047991      0.166721     -0.534683
  C      -2.309094      0.470993      0.158057
  C      -3.110268      1.583272     -0.499730
  H      -3.931025      1.863447      0.159154
  H      -3.562014      1.279942     -1.445464
  H      -2.507878      2.476726     -0.666141
  C      -3.128574     -0.806006      0.303149
  H      -2.005269      0.804101      1.151478
  H      -4.032016     -0.597511      0.874258
  H      -3.431269     -1.195408     -0.669717
  H      -2.581228     -1.584061      0.833225
  C      -0.876618      0.389051     -1.775764
  C       0.463869      0.158726     -2.244085
  H      -1.663509      0.761869     -2.424446
  C       1.537258      0.344286     -1.373089
  C       2.754039     -0.048150     -2.010300
  S       0.922858     -0.466759     -3.753649
  C       2.573305     -0.502429     -3.277565
  H       1.505414      1.273993     -0.647872
  H       3.728503      0.056435     -1.555751
  H       3.323579     -0.833940     -3.979378
  H      -0.788638     -3.175531     -0.188128
  H      -0.687084     -2.369842      2.405397
  H       1.828855     -1.535277      2.897832
  O       1.331573      2.486867      0.217412
  O       0.539445      0.941730      1.616018
  C       0.916933      2.139309      1.321169
  C       0.849772      3.115976      2.462458
  H       0.813861      4.137457      2.093864
  H       1.749069      3.011865      3.072628
  H      -0.003172      2.922286      3.109567
  H       3.282757     -1.875863      0.677305
  H       1.649984     -2.879965     -1.247397
39
Coordinates from ORCA-job reaction4-IEIP_ts_guess_scan_8-0_orca E -1288.400385911844
  Ir      0.622057     -0.695237      0.403302
  C       0.084948     -2.794962      0.328238
  C       0.124312     -2.336789      1.691759
  C       2.232793     -2.091704      0.787147
  C       1.364775     -2.629923     -0.235038
  C       1.472903     -1.942804      1.965013
  N      -1.054738      0.166223     -0.536161
  C      -2.315211      0.470849      0.157596
  C      -3.118063      1.580498     -0.502594
  H      -3.938755      1.861449      0.156007
  H      -3.569914      1.274118     -1.447317
  H      -2.516808      2.474233     -0.671720
  C      -3.132839     -0.806833      0.306490
  H      -2.010799      0.806696      1.149886
  H      -4.035775     -0.598357      0.878373
  H      -3.436361     -1.198709     -0.665137
  H      -2.583645     -1.583024      0.837398
  C      -0.883083      0.384462     -1.782695
  C       0.461021      0.156168     -2.253877
  H      -1.671224      0.753687     -2.431897
  C       1.533840      0.343566     -1.381140
  C       2.752598     -0.047076     -2.016516
  S       0.923002     -0.473413     -3.760530
  C       2.573661     -0.505121     -3.282560
  H       1.503210      1.287941     -0.673094
  H       3.726681      0.062666     -1.562215
  H       3.325375     -0.836546     -3.982784
  H      -0.785107     -3.176692     -0.186511
  H      -0.684103     -2.369582      2.406735
  H       1.828241     -1.527744      2.897332
  O       1.399317      2.468837      0.245976
  O       0.529829      0.945723      1.617075
  C       0.940118      2.134738      1.336175
  C       0.851856      3.115866      2.472179
  H       0.848716      4.136819      2.100344
  H       1.727043      2.996147      3.113713
  H      -0.026842      2.940518      3.089318
  H       3.283502     -1.869167      0.678351
  H       1.652836     -2.878330     -1.245880
39
Coordinates from ORCA-job reaction4-IEIP_ts_guess_scan_8-0_orca E -1288.399762656979
  Ir      0.631508     -0.704868      0.406957
  C       0.082227     -2.805395      0.326581
  C       0.123570     -2.356132      1.692860
  C       2.231988     -2.115276      0.790779
  C       1.362975     -2.644448     -0.234925
  C       1.470989     -1.967686      1.967727
  N      -1.046080      0.171615     -0.521348
  C      -2.305196      0.475990      0.174404
  C      -3.099401      1.598063     -0.475253
  H      -3.920396      1.876430      0.184017
  H      -3.549985      1.305195     -1.424905
  H      -2.492337      2.490094     -0.632369
  C      -3.130383     -0.798589      0.306175
  H      -2.000473      0.798008      1.171112
  H      -4.032705     -0.592269      0.879763
  H      -3.435151     -1.176343     -0.670660
  H      -2.585933     -1.584536      0.827551
  C      -0.867256      0.404047     -1.773584
  C       0.482445      0.174652     -2.252858
  H      -1.652957      0.784792     -2.418985
  C       1.556515      0.332128     -1.371721
  C       2.773531     -0.064338     -2.008712
  S       0.943168     -0.440342     -3.765137
  C       2.592789     -0.501604     -3.281423
  H       1.549867      1.291949     -0.676798
  H       3.747739      0.029484     -1.550841
  H       3.342914     -0.832447     -3.983484
  H      -0.789122     -3.181279     -0.190341
  H      -0.684685     -2.390047      2.407852
  H       1.827068     -1.559180      2.902638
  O       1.195310      2.473800      0.176148
  O       0.541239      0.929698      1.631793
  C       0.864815      2.133326      1.310628
  C       0.825464      3.124876      2.440173
  H       0.730834      4.138536      2.060443
  H       1.760870      3.063131      2.999593
  H       0.017986      2.910217      3.136942
  H       3.284586     -1.900355      0.685989
  H       1.651031     -2.891709     -1.246039
39
Coordinates from ORCA-job reaction4-IEIP_ts_guess_scan_8-0_orca E -1288.400528177195
  Ir      0.623297     -0.699968      0.405930
  C       0.078773     -2.799060      0.333982
  C       0.119529     -2.341467      1.697450
  C       2.228333     -2.102176      0.792802
  C       1.359253     -2.638456     -0.229276
  C       1.468079     -1.950295      1.970156
  N      -1.051001      0.165984     -0.531021
  C      -2.312060      0.468176      0.161450
  C      -3.112008      1.582166     -0.494927
  H      -3.934468      1.860340      0.162682
  H      -3.561151      1.281191     -1.442669
  H      -2.509383      2.476176     -0.657450
  C      -3.130977     -0.809740      0.301257
  H      -2.009213      0.797959      1.156199
  H      -4.034614     -0.604082      0.873081
  H      -3.433302     -1.195395     -0.673207
  H      -2.582956     -1.589526      0.828125
  C      -0.877548      0.391200     -1.777314
  C       0.467182      0.165226     -2.252060
  H      -1.665439      0.765067     -2.423988
  C       1.540625      0.338522     -1.375850
  C       2.759192     -0.049298     -2.014142
  S       0.928736     -0.450392     -3.763970
  C       2.579870     -0.490622     -3.285950
  H       1.515797      1.282557     -0.665312
  H       3.733131      0.052192     -1.557661
  H       3.331109     -0.815904     -3.989599
  H      -0.792323     -3.178540     -0.180643
  H      -0.688904     -2.371821      2.412470
  H       1.824190     -1.535796      2.902421
  O       1.333804      2.483391      0.214959
  O       0.538959      0.943204      1.616777
  C       0.917205      2.139570      1.319898
  C       0.852241      3.119118      2.458527
  H       0.817516      4.139734      2.087435
  H       1.751706      3.015269      3.068441
  H      -0.000724      2.928007      3.106283
  H       3.280072     -1.884105      0.685102
  H       1.646843     -2.889216     -1.239648
39
Coordinates from ORCA-job reaction4-IEIP_ts_guess_scan_8-0_orca E -1288.400539374084
  Ir      0.623980     -0.701419      0.406064
  C       0.079866     -2.800602      0.335558
  C       0.119454     -2.342520      1.698738
  C       2.228926     -2.102951      0.795298
  C       1.360784     -2.640120     -0.226966
  C       1.467530     -1.950682      1.971967
  N      -1.049965      0.164761     -0.531295
  C      -2.310551      0.467811      0.161840
  C      -3.109628      1.583573     -0.492609
  H      -3.931220      1.862079      0.165932
  H      -3.559937      1.284206     -1.440282
  H      -2.505945      2.476958     -0.654608
  C      -3.131273     -0.809084      0.301093
  H      -2.006712      0.796177      1.156816
  H      -4.034229     -0.602659      0.873726
  H      -3.434787     -1.193425     -0.673517
  H      -2.583992     -1.590056      0.826879
  C      -0.877259      0.391006     -1.777079
  C       0.466549      0.165754     -2.253219
  H      -1.665521      0.765880     -2.422672
  C       1.540399      0.336032     -1.376789
  C       2.758483     -0.050009     -2.016976
  S       0.927459     -0.441313     -3.768486
  C       2.578233     -0.488237     -3.289744
  H       1.516869      1.281330     -0.667146
  H       3.732568      0.048495     -1.560211
  H       3.328792     -0.812850     -3.994424
  H      -0.790718     -3.180596     -0.179518
  H      -0.689544     -2.372449      2.413121
  H       1.822809     -1.535436      2.904221
  O       1.342388      2.480619      0.216745
  O       0.538975      0.942537      1.615509
  C       0.923336      2.137111      1.320801
  C       0.847433      3.119523      2.456380
  H       0.813334      4.139170      2.082524
  H       1.742532      3.019065      3.073224
  H      -0.009980      2.928227      3.098229
  H       3.280798     -1.885059      0.688538
  H       1.649133     -2.891657     -1.236925
39
Coordinates from ORCA-job reaction4-IEIP_ts_guess_scan_8-0_orca E -1288.400555156645
  Ir      0.623539     -0.702980      0.407053
  C       0.080518     -2.802533      0.339543
  C       0.117347     -2.343022      1.702109
  C       2.228345     -2.102980      0.801802
  C       1.362441     -2.642250     -0.221071
  C       1.464374     -1.949631      1.976813
  N      -1.049771      0.162814     -0.532201
  C      -2.310548      0.465611      0.160958
  C      -3.108994      1.583151     -0.491255
  H      -3.930269      1.861037      0.167920
  H      -3.559732      1.285763     -1.439322
  H      -2.504670      2.476370     -0.651759
  C      -3.132478     -0.810804      0.298265
  H      -2.006569      0.792006      1.156589
  H      -4.035154     -0.604531      0.871396
  H      -3.436452     -1.193261     -0.676939
  H      -2.585741     -1.593060      0.822643
  C      -0.877422      0.390746     -1.777510
  C       0.465511      0.166977     -2.255267
  H      -1.666274      0.766119     -2.422087
  C       1.539356      0.332054     -1.377514
  C       2.757409     -0.049897     -2.020184
  S       0.926238     -0.430363     -3.774018
  C       2.577194     -0.479270     -3.296002
  H       1.517457      1.279425     -0.669270
  H       3.731420      0.045146     -1.562585
  H       3.327626     -0.799047     -4.003017
  H      -0.788857     -3.183806     -0.176612
  H      -0.692984     -2.372105      2.414989
  H       1.817658     -1.532630      2.909053
  O       1.347491      2.478233      0.216152
  O       0.536839      0.943348      1.613578
  C       0.923206      2.136761      1.318852
  C       0.850554      3.119646      2.454428
  H       0.820629      4.139405      2.080521
  H       1.744936      3.015819      3.071793
  H      -0.007934      2.931666      3.095821
  H       3.280455     -1.885259      0.697133
  H       1.652677     -2.895478     -1.230059
39
Coordinates from ORCA-job reaction4-IEIP_ts_guess_scan_8-0_orca E -1288.400569209665
  Ir      0.622297     -0.706148      0.409878
  C       0.078919     -2.805617      0.347692
  C       0.110934     -2.343236      1.709146
  C       2.225222     -2.104929      0.815194
  C       1.363011     -2.647174     -0.209030
  C       1.456496     -1.948416      1.986961
  N      -1.049058      0.160236     -0.532630
  C      -2.310865      0.459727      0.160439
  C      -3.108650      1.580882     -0.486370
  H      -3.930404      1.855220      0.173668
  H      -3.558702      1.288531     -1.436319
  H      -2.504089      2.474868     -0.641626
  C      -3.133261     -0.817248      0.290144
  H      -2.008144      0.780662      1.158204
  H      -4.036217     -0.613934      0.863865
  H      -3.436660     -1.194229     -0.687366
  H      -2.586863     -1.602523      0.810404
  C      -0.877129      0.393117     -1.777205
  C       0.464385      0.172226     -2.258493
  H      -1.667210      0.769979     -2.419495
  C       1.538165      0.323621     -1.377705
  C       2.756011     -0.050657     -2.025432
  S       0.924667     -0.404879     -3.784506
  C       2.575903     -0.459277     -3.308120
  H       1.520043      1.272034     -0.668390
  H       3.729902      0.035628     -1.565852
  H       3.326010     -0.768544     -4.020125
  H      -0.788540     -3.188307     -0.170666
  H      -0.702126     -2.369615      2.418978
  H       1.806380     -1.528305      2.919117
  O       1.354502      2.476051      0.210780
  O       0.536817      0.946004      1.609990
  C       0.927167      2.137198      1.313456
  C       0.859079      3.122362      2.447519
  H       0.832560      4.141617      2.072032
  H       1.753663      3.016271      3.064213
  H       0.000504      2.938474      3.089976
  H       3.278006     -1.888659      0.714568
  H       1.656645     -2.903824     -1.216152
39
Coordinates from ORCA-job reaction4-IEIP_ts_guess_scan_8-0_orca E -1288.400571277784
  Ir      0.621853     -0.707049      0.411437
  C       0.078756     -2.806397      0.350311
  C       0.106980     -2.342684      1.711387
  C       2.223813     -2.104973      0.822952
  C       1.364446     -2.648459     -0.203000
  C       1.451670     -1.947180      1.992384
  N      -1.048384      0.159189     -0.532648
  C      -2.310563      0.456326      0.160934
  C      -3.108168      1.579549     -0.482522
  H      -3.930108      1.851631      0.178226
  H      -3.557931      1.290213     -1.433525
  H      -2.503633      2.474057     -0.634745
  C      -3.132967     -0.821149      0.285740
  H      -2.008561      0.774000      1.159937
  H      -4.036190     -0.619904      0.859786
  H      -3.435915     -1.194715     -0.693218
  H      -2.586778     -1.608308      0.803349
  C      -0.877148      0.394900     -1.776973
  C       0.463696      0.176008     -2.260442
  H      -1.668062      0.772922     -2.417551
  C       1.537481      0.319062     -1.378372
  C       2.754867     -0.052393     -2.028476
  S       0.923912     -0.386690     -3.791696
  C       2.574230     -0.452101     -3.313966
  H       1.521852      1.266936     -0.667086
  H       3.728742      0.027609     -1.567712
  H       3.323767     -0.758588     -4.027757
  H      -0.787108     -3.189834     -0.170157
  H      -0.708213     -2.367891      2.418811
  H       1.798919     -1.525634      2.924887
  O       1.357778      2.474220      0.207869
  O       0.536697      0.947330      1.608632
  C       0.928593      2.137541      1.310699
  C       0.862979      3.124185      2.443576
  H       0.837807      4.143016      2.066880
  H       1.757908      3.017359      3.059644
  H       0.004618      2.942395      3.086886
  H       3.276950     -1.889081      0.725299
  H       1.660788     -2.906229     -1.209036
39
Coordinates from ORCA-job reaction4-IEIP_ts_guess_scan_8-0_orca E -1288.400577782214
  Ir      0.622088     -0.707823      0.413259
  C       0.079169     -2.806999      0.351170
  C       0.102827     -2.342357      1.712125
  C       2.222839     -2.105401      0.830862
  C       1.366782     -2.649349     -0.197688
  C       1.446725     -1.946805      1.997576
  N      -1.047114      0.158479     -0.532296
  C      -2.309300      0.453775      0.162308
  C      -3.106375      1.579522     -0.477481
  H      -3.928079      1.849789      0.184329
  H      -3.556388      1.293494     -1.429349
  H      -2.501454      2.474215     -0.626904
  C      -3.132394     -0.823735      0.282222
  H      -2.007617      0.768059      1.162455
  H      -4.035748     -0.624125      0.856677
  H      -3.435210     -1.193654     -0.698155
  H      -2.586916     -1.613173      0.797035
  C      -0.877052      0.396031     -1.776699
  C       0.462997      0.178276     -2.262400
  H      -1.668990      0.774716     -2.415562
  C       1.536870      0.313637     -1.379640
  C       2.753713     -0.055192     -2.031889
  S       0.922386     -0.375576     -3.797235
  C       2.572597     -0.444766     -3.320563
  H       1.523430      1.260573     -0.665842
  H       3.727731      0.020247     -1.570657
  H       3.321796     -0.746649     -4.036650
  H      -0.784768     -3.190885     -0.172143
  H      -0.714941     -2.366711      2.416621
  H       1.790867     -1.524469      2.930876
  O       1.360852      2.470702      0.205454
  O       0.537378      0.947685      1.608703
  C       0.931234      2.136797      1.309104
  C       0.864077      3.126397      2.439124
  H       0.838263      4.144181      2.059657
  H       1.758813      3.021882      3.055852
  H       0.005515      2.945581      3.082412
  H       3.276347     -1.889752      0.736738
  H       1.666422     -2.907427     -1.202664
39
Coordinates from ORCA-job reaction4-IEIP_ts_guess_scan_8-0_orca E -1288.400585618017
  Ir      0.622860     -0.707352      0.415075
  C       0.081466     -2.806916      0.348961
  C       0.099086     -2.342078      1.710181
  C       2.222970     -2.104456      0.838456
  C       1.371335     -2.648288     -0.193949
  C       1.441890     -1.946581      2.001925
  N      -1.046053      0.157952     -0.531654
  C      -2.308058      0.451765      0.164166
  C      -3.104314      1.580434     -0.471743
  H      -3.925516      1.849286      0.191278
  H      -3.554885      1.297943     -1.424379
  H      -2.498609      2.475025     -0.618510
  C      -3.132341     -0.825418      0.279074
  H      -2.006472      0.762524      1.165392
  H      -4.035776     -0.627193      0.853920
  H      -3.435177     -1.191419     -0.702763
  H      -2.587990     -1.617503      0.790971
  C      -0.877579      0.396019     -1.776435
  C       0.461732      0.179096     -2.264193
  H      -1.670788      0.774613     -2.413704
  C       1.535912      0.308865     -1.381682
  C       2.752160     -0.058511     -2.035212
  S       0.920205     -0.368891     -3.801841
  C       2.570089     -0.442083     -3.325766
  H       1.523829      1.254220     -0.664523
  H       3.726458      0.013863     -1.574104
  H       3.318924     -0.741694     -4.043187
  H      -0.779825     -3.191440     -0.178216
  H      -0.721774     -2.366930      2.411087
  H       1.781900     -1.524437      2.936823
  O       1.364055      2.466362      0.204490
  O       0.538055      0.948021      1.610795
  C       0.933210      2.136259      1.308834
  C       0.864288      3.129113      2.435581
  H       0.837490      4.145692      2.052959
  H       1.758927      3.027453      3.052907
  H       0.005629      2.949211      3.078968
  H       3.276725     -1.888136      0.748682
  H       1.675332     -2.905199     -1.197927
39
Coordinates from ORCA-job reaction4-IEIP_ts_guess_scan_8-0_orca E -1288.400590851403
  Ir      0.623477     -0.706401      0.416145
  C       0.084139     -2.806757      0.346076
  C       0.096950     -2.342421      1.707660
  C       2.223576     -2.102856      0.843315
  C       1.375618     -2.646603     -0.192174
  C       1.438554     -1.946615      2.004364
  N      -1.045585      0.157431     -0.530850
  C      -2.307393      0.450892      0.165517
  C      -3.102566      1.581827     -0.467915
  H      -3.923358      1.850268      0.195769
  H      -3.553548      1.301771     -1.421058
  H      -2.495809      2.475979     -0.612992
  C      -3.132927     -0.825736      0.277324
  H      -2.005672      0.759216      1.167436
  H      -4.036197     -0.628165      0.852658
  H      -3.436134     -1.188957     -0.705437
  H      -2.589393     -1.619773      0.787100
  C      -0.878266      0.394727     -1.776013
  C       0.460481      0.178210     -2.265062
  H      -1.672479      0.772507     -2.412509
  C       1.535115      0.306412     -1.383249
  C       2.751018     -0.060303     -2.037350
  S       0.918229     -0.368128     -3.803833
  C       2.568067     -0.442318     -3.328384
  H       1.523264      1.251005     -0.664335
  H       3.725590      0.011438     -1.576774
  H       3.316693     -0.741296     -4.046301
  H      -0.775009     -3.191957     -0.184092
  H      -0.726084     -2.368765      2.405969
  H       1.775138     -1.525156      2.940812
  O       1.365714      2.463725      0.204278
  O       0.538321      0.948172      1.612652
  C       0.933781      2.135957      1.308830
  C       0.864186      3.130694      2.433761
  H       0.836540      4.146585      2.049358
  H       1.759059      3.030875      3.051043
  H       0.005787      2.951188      3.077588
  H       3.277402     -1.885520      0.756914
  H       1.683091     -2.901963     -1.195502
39
Coordinates from ORCA-job reaction4-IEIP_ts_guess_scan_8-0_orca E -1288.400594303760
  Ir      0.623866     -0.705813      0.416918
  C       0.086679     -2.807078      0.343777
  C       0.095515     -2.343485      1.705706
  C       2.224186     -2.101384      0.847228
  C       1.379410     -2.645375     -0.190698
  C       1.435826     -1.946916      2.006315
  N      -1.045579      0.156804     -0.529947
  C      -2.307345      0.450279      0.166492
  C      -3.101159      1.583254     -0.465063
  H      -3.921780      1.851543      0.198877
  H      -3.552219      1.305315     -1.418777
  H      -2.493219      2.476862     -0.608529
  C      -3.134100     -0.825789      0.275681
  H      -2.005612      0.756414      1.169075
  H      -4.037070     -0.628768      0.851665
  H      -3.437838     -1.186471     -0.707858
  H      -2.591093     -1.621517      0.783419
  C      -0.878982      0.393145     -1.775401
  C       0.459307      0.176934     -2.265365
  H      -1.673944      0.769932     -2.411576
  C       1.534464      0.304935     -1.384163
  C       2.750135     -0.061041     -2.038915
  S       0.916462     -0.368463     -3.804755
  C       2.566441     -0.442561     -3.330050
  H       1.522607      1.249440     -0.664702
  H       3.724955      0.010745     -1.578909
  H       3.314891     -0.741051     -4.048364
  H      -0.770688     -3.192976     -0.188759
  H      -0.729145     -2.371600      2.402026
  H       1.769444     -1.526061      2.944106
  O       1.366293      2.462505      0.203652
  O       0.538680      0.948554      1.613743
  C       0.934024      2.136017      1.308391
  C       0.864730      3.131937      2.432353
  H       0.836143      4.147423      2.046930
  H       1.760252      3.033428      3.048912
  H       0.007036      2.952541      3.077138
  H       3.278038     -1.883102      0.763666
  H       1.689761     -2.899368     -1.193499
39
Coordinates from ORCA-job reaction4-IEIP_ts_guess_scan_8-0_orca E -1288.400597105875
  Ir      0.624187     -0.705529      0.417608
  C       0.089584     -2.807769      0.341246
  C       0.093831     -2.345216      1.703591
  C       2.224768     -2.099724      0.851758
  C       1.383754     -2.644246     -0.188895
  C       1.432492     -1.947368      2.008568
  N      -1.045671      0.156108     -0.528776
  C      -2.307395      0.449691      0.167686
  C      -3.099468      1.585031     -0.461797
  H      -3.919984      1.853165      0.202322
  H      -3.550498      1.309559     -1.416229
  H      -2.490086      2.477961     -0.603310
  C      -3.135498     -0.825779      0.273862
  H      -2.005677      0.753217      1.171067
  H      -4.037901     -0.629559      0.850993
  H      -3.440177     -1.183332     -0.710537
  H      -2.592760     -1.623475      0.778848
  C      -0.879784      0.391326     -1.774533
  C       0.458020      0.175364     -2.265407
  H      -1.675456      0.766975     -2.410534
  C       1.533829      0.303602     -1.384862
  C       2.749208     -0.061527     -2.040559
  S       0.914430     -0.369081     -3.805334
  C       2.564703     -0.442678     -3.331705
  H       1.522065      1.248412     -0.665547
  H       3.724315      0.010442     -1.581213
  H       3.312889     -0.740558     -4.050555
  H      -0.765743     -3.194461     -0.193990
  H      -0.732666     -2.375491      2.397637
  H       1.762598     -1.527037      2.947849
  O       1.366248      2.461926      0.202269
  O       0.539260      0.949032      1.614079
  C       0.934186      2.136226      1.307283
  C       0.865450      3.133153      2.430524
  H       0.835385      4.148285      2.044268
  H       1.761987      3.036177      3.045859
  H       0.008873      2.953495      3.076706
  H       3.278658     -1.880426      0.771568
  H       1.697415     -2.896704     -1.191068
