39
Generated by autodE on: 2023-08-15. E = -1288.396869 Ha
Ir    0.59405  -0.74032   0.50499
C     0.07816  -2.83240   0.37231
C    -0.02169  -2.37023   1.73369
C     2.17032  -2.12498   1.05125
C     1.40963  -2.66225  -0.05238
C     1.29169  -1.97864   2.14370
N    -1.03740   0.12056  -0.49739
C    -2.32032   0.37989   0.17911
C    -3.09126   1.55442  -0.40577
H    -3.92506   1.79254   0.25325
H    -3.52189   1.33525  -1.38367
H    -2.47303   2.44869  -0.48663
C    -3.15915  -0.89276   0.18622
H    -2.05203   0.62822   1.20696
H    -4.07534  -0.72899   0.75194
H    -3.44069  -1.18479  -0.82638
H    -2.63414  -1.72671   0.64964
C    -0.86813   0.37574  -1.74106
C     0.45879   0.21488  -2.27154
H    -1.68297   0.73431  -2.36373
C     1.56989   0.32510  -1.44707
C     2.75599   0.01985  -2.16945
S     0.85636  -0.19719  -3.87889
C     2.52046  -0.26913  -3.48054
H     1.58681   1.27055  -0.58908
H     3.75007   0.06967  -1.74949
H     3.24406  -0.50088  -4.24743
H    -0.73161  -3.22081  -0.22828
H    -0.89682  -2.40864   2.36523
H     1.54820  -1.56292   3.10789
O     1.54575   2.34438   0.19213
O     0.54721   0.96885   1.63294
C     1.02985   2.10350   1.29469
C     0.97990   3.17668   2.34179
H     0.92002   4.16066   1.88400
H     1.90179   3.14169   2.92557
H     0.14915   3.02976   3.02744
H     3.22615  -1.90094   1.04888
H     1.79661  -2.89341  -1.03412
