39
Coordinates from ORCA-job reaction4-IEIP_ts_guess_scan_6-8_orca E -1288.399287927166
  Ir      0.601887     -0.718551      0.452092
  C       0.069096     -2.811172      0.345581
  C       0.066692     -2.353317      1.711397
  C       2.203881     -2.113368      0.876329
  C       1.366054     -2.643735     -0.174813
  C       1.408694     -1.969169      2.030179
  N      -1.050058      0.146148     -0.516056
  C      -2.322356      0.432369      0.166877
  C      -3.110314      1.568531     -0.466837
  H      -3.936736      1.834639      0.190795
  H      -3.553091      1.295058     -1.425637
  H      -2.500667      2.462224     -0.601924
  C      -3.149737     -0.844583      0.257927
  H      -2.035495      0.733844      1.175379
  H      -4.060815     -0.652507      0.822787
  H      -3.439823     -1.199540     -0.731858
  H      -2.613170     -1.643426      0.767665
  C      -0.873573      0.377103     -1.760047
  C       0.467492      0.181049     -2.247874
  H      -1.671188      0.737147     -2.403391
  C       1.552669      0.361734     -1.396686
  C       2.762827      0.001554     -2.056300
  S       0.913877     -0.375377     -3.793828
  C       2.568575     -0.406386     -3.340251
  H       1.518299      1.290438     -0.603324
  H       3.742830      0.096092     -1.611472
  H       3.314615     -0.703257     -4.061964
  H      -0.784317     -3.191268     -0.197353
  H      -0.763132     -2.389344      2.401525
  H       1.735210     -1.559542      2.975473
  O       1.413075      2.419424      0.193245
  O       0.544624      0.951027      1.627199
  C       0.966587      2.121093      1.304853
  C       0.919259      3.142990      2.404335
  H       0.877787      4.148945      1.995527
  H       1.830943      3.063603      2.999793
  H       0.078217      2.975130      3.073303
  H       3.256835     -1.888238      0.798344
  H       1.683816     -2.878171     -1.180251
39
Coordinates from ORCA-job reaction4-IEIP_ts_guess_scan_6-8_orca E -1288.395885247117
  Ir      0.607221     -0.694340      0.439822
  C       0.104832     -2.793694      0.291479
  C       0.086132     -2.363677      1.665852
  C       2.225283     -2.075501      0.851159
  C       1.402893     -2.597903     -0.215939
  C       1.419464     -1.964788      2.001496
  N      -1.057834      0.161838     -0.520499
  C      -2.324831      0.456814      0.167296
  C      -3.121351      1.577562     -0.482807
  H      -3.944248      1.853409      0.175215
  H      -3.569451      1.283784     -1.433108
  H      -2.516031      2.470682     -0.639509
  C      -3.146517     -0.821127      0.289705
  H      -2.030709      0.778732      1.167364
  H      -4.053601     -0.621527      0.858347
  H      -3.443383     -1.196088     -0.690637
  H      -2.602612     -1.608011      0.810224
  C      -0.891622      0.363713     -1.771598
  C       0.448308      0.153081     -2.254853
  H      -1.694066      0.699689     -2.421866
  C       1.529902      0.400141     -1.414835
  C       2.740762     -0.010957     -2.044045
  S       0.897947     -0.508476     -3.757259
  C       2.549793     -0.516046     -3.293336
  H       1.500882      1.422736     -0.729069
  H       3.720368      0.121783     -1.608284
  H       3.297898     -0.865124     -3.988964
  H      -0.738941     -3.175782     -0.264956
  H      -0.747766     -2.425901      2.349059
  H       1.733060     -1.568793      2.956897
  O       1.504517      2.379733      0.273103
  O       0.511329      0.947254      1.649161
  C       0.981650      2.104239      1.357944
  C       0.902528      3.129268      2.452445
  H       0.917035      4.135323      2.041943
  H       1.774767      3.022114      3.100314
  H       0.018834      2.989250      3.070787
  H       3.275582     -1.834733      0.785672
  H       1.731349     -2.809487     -1.222978
39
Coordinates from ORCA-job reaction4-IEIP_ts_guess_scan_6-8_orca E -1288.399428077539
  Ir      0.602839     -0.714748      0.456160
  C       0.081058     -2.811602      0.338787
  C       0.069554     -2.362833      1.707245
  C       2.209343     -2.104188      0.882924
  C       1.379774     -2.634176     -0.174811
  C       1.407066     -1.970974      2.033750
  N      -1.050259      0.147272     -0.514453
  C      -2.320804      0.437945      0.168123
  C      -3.107487      1.571278     -0.472076
  H      -3.934378      1.841265      0.183362
  H      -3.549274      1.293030     -1.429998
  H      -2.497244      2.463953     -0.611269
  C      -3.148604     -0.838145      0.265905
  H      -2.032682      0.744118      1.174839
  H      -4.058980     -0.642957      0.830782
  H      -3.439815     -1.197554     -0.721935
  H      -2.611711     -1.634771      0.778855
  C      -0.875060      0.378487     -1.760335
  C       0.465798      0.184386     -2.254057
  H      -1.673555      0.742304     -2.400410
  C       1.553837      0.350251     -1.401354
  C       2.759420     -0.016275     -2.067884
  S       0.904627     -0.371602     -3.801929
  C       2.559847     -0.417066     -3.352562
  H       1.538983      1.299018     -0.616323
  H       3.741409      0.070111     -1.625842
  H       3.302030     -0.715761     -4.077403
  H      -0.767495     -3.193883     -0.210215
  H      -0.763008     -2.408366      2.393353
  H       1.726588     -1.564694      2.982843
  O       1.410029      2.407146      0.205643
  O       0.528080      0.950586      1.638831
  C       0.958499      2.116626      1.318244
  C       0.909532      3.143800      2.412375
  H       0.874553      4.148087      1.998813
  H       1.817486      3.063297      3.013310
  H       0.064054      2.982294      3.077157
  H       3.261570     -1.873693      0.811875
  H       1.703748     -2.862778     -1.179580
39
Coordinates from ORCA-job reaction4-IEIP_ts_guess_scan_6-8_orca E -1288.397561272947
  Ir      0.589869     -0.723434      0.456357
  C       0.046224     -2.817213      0.391807
  C       0.043867     -2.336246      1.748956
  C       2.183194     -2.118394      0.912160
  C       1.344752     -2.665722     -0.129495
  C       1.385981     -1.949653      2.061687
  N      -1.064879      0.126781     -0.529589
  C      -2.339923      0.407524      0.149845
  C      -3.136395      1.533384     -0.491600
  H      -3.966469      1.795961      0.162864
  H      -3.574803      1.250830     -1.449777
  H      -2.534320      2.431657     -0.630397
  C      -3.156601     -0.875777      0.247630
  H      -2.056520      0.716883      1.156868
  H      -4.069308     -0.688349      0.811434
  H      -3.443490     -1.238400     -0.740287
  H      -2.613040     -1.667194      0.761631
  C      -0.891854      0.359461     -1.775471
  C       0.451483      0.193086     -2.268502
  H      -1.693265      0.720370     -2.413339
  C       1.529623      0.347271     -1.403598
  C       2.748777      0.051748     -2.080167
  S       0.909918     -0.286646     -3.835693
  C       2.565385     -0.295308     -3.383246
  H       1.474860      1.251528     -0.571938
  H       3.726043      0.146909     -1.629420
  H       3.318592     -0.536596     -4.118053
  H      -0.807987     -3.203775     -0.145319
  H      -0.786818     -2.357170      2.438519
  H       1.712622     -1.523975      2.999808
  O       1.652965      2.349903      0.253927
  O       0.534219      0.972201      1.604887
  C       1.067637      2.103710      1.314579
  C       0.987221      3.144588      2.393419
  H       1.063472      4.143887      1.973382
  H       1.825361      3.007595      3.079535
  H       0.072489      3.050558      2.974214
  H       3.237522     -1.900658      0.832483
  H       1.662965     -2.922135     -1.129366
39
Coordinates from ORCA-job reaction4-IEIP_ts_guess_scan_6-8_orca E -1288.399509861448
  Ir      0.597427     -0.714179      0.457521
  C       0.064744     -2.809829      0.364500
  C       0.055936     -2.347146      1.727972
  C       2.196488     -2.106882      0.899967
  C       1.364094     -2.644458     -0.151490
  C       1.394936     -1.957257      2.049383
  N      -1.053625      0.144144     -0.518265
  C      -2.329937      0.419653      0.160741
  C      -3.124308      1.551371     -0.472924
  H      -3.955830      1.808727      0.181764
  H      -3.560540      1.277256     -1.434553
  H      -2.521542      2.450541     -0.602596
  C      -3.147827     -0.863814      0.245714
  H      -2.048559      0.720226      1.171033
  H      -4.061698     -0.680542      0.809008
  H      -3.432708     -1.217788     -0.745915
  H      -2.606069     -1.659974      0.754197
  C      -0.875397      0.389009     -1.761404
  C       0.464423      0.201833     -2.258818
  H      -1.674753      0.754992     -2.398937
  C       1.552662      0.342465     -1.402589
  C       2.757112     -0.010194     -2.078043
  S       0.901826     -0.310443     -3.821791
  C       2.556466     -0.375971     -3.373024
  H       1.545617      1.280880     -0.602262
  H       3.739304      0.061666     -1.633776
  H       3.297816     -0.657150     -4.105622
  H      -0.785897     -3.193715     -0.180118
  H      -0.776519     -2.381581      2.414811
  H       1.716705     -1.542155      2.993901
  O       1.490988      2.396329      0.218099
  O       0.527491      0.965012      1.626037
  C       0.996674      2.118676      1.316242
  C       0.943625      3.148921      2.406913
  H       0.947418      4.152965      1.991337
  H       1.831246      3.045414      3.034106
  H       0.075102      3.011050      3.046809
  H       3.249933     -1.882835      0.826493
  H       1.686548     -2.886025     -1.153679
39
Coordinates from ORCA-job reaction4-IEIP_ts_guess_scan_6-8_orca E -1288.399543025750
  Ir      0.603210     -0.720766      0.458868
  C       0.061134     -2.814332      0.369511
  C       0.050974     -2.349843      1.732091
  C       2.194592     -2.120104      0.908639
  C       1.362424     -2.655672     -0.143857
  C       1.390638     -1.964622      2.055673
  N      -1.048073      0.143108     -0.519757
  C      -2.323115      0.421162      0.161004
  C      -3.116940      1.553994     -0.471312
  H      -3.946907      1.812436      0.184893
  H      -3.555395      1.280540     -1.432117
  H      -2.513277      2.452398     -0.601977
  C      -3.143917     -0.860408      0.247866
  H      -2.039763      0.721797      1.170822
  H      -4.056870     -0.674543      0.811844
  H      -3.430584     -1.214574     -0.743177
  H      -2.603764     -1.657347      0.756561
  C      -0.872559      0.387343     -1.763593
  C       0.465687      0.201573     -2.262414
  H      -1.672896      0.754182     -2.399429
  C       1.551228      0.338372     -1.403515
  C       2.757743     -0.004848     -2.079949
  S       0.904846     -0.304500     -3.826655
  C       2.559998     -0.359416     -3.378765
  H       1.543230      1.285796     -0.609975
  H       3.739262      0.069009     -1.634514
  H       3.303357     -0.630208     -4.113202
  H      -0.789773     -3.195380     -0.176619
  H      -0.783283     -2.379574      2.416960
  H       1.711920     -1.549159      3.000197
  O       1.453226      2.405428      0.201521
  O       0.535708      0.959299      1.626576
  C       0.982084      2.119306      1.308248
  C       0.939597      3.147387      2.401294
  H       0.922053      4.152033      1.987524
  H       1.841517      3.053919      3.009353
  H       0.086582      2.997637      3.059139
  H       3.249324     -1.901435      0.837713
  H       1.686151     -2.900798     -1.144730
39
Coordinates from ORCA-job reaction4-IEIP_ts_guess_scan_6-8_orca E -1288.399571681687
  Ir      0.604156     -0.722817      0.460590
  C       0.060833     -2.815620      0.372274
  C       0.047931     -2.350747      1.734464
  C       2.193521     -2.122668      0.915087
  C       1.363393     -2.658175     -0.138785
  C       1.386837     -1.965713      2.060241
  N      -1.045212      0.140521     -0.519014
  C      -2.319525      0.419350      0.162958
  C      -3.112189      1.554408     -0.466816
  H      -3.941132      1.812910      0.190641
  H      -3.552017      1.283248     -1.427641
  H      -2.507395      2.452194     -0.596506
  C      -3.143149     -0.860549      0.248620
  H      -2.035187      0.718305      1.173047
  H      -4.055821     -0.673126      0.812545
  H      -3.430438     -1.213233     -0.742772
  H      -2.605132     -1.659151      0.756780
  C      -0.870776      0.387410     -1.762524
  C       0.466406      0.203831     -2.264706
  H      -1.671991      0.756749     -2.395820
  C       1.552507      0.329972     -1.405221
  C       2.758664     -0.007779     -2.085001
  S       0.905564     -0.276182     -3.836853
  C       2.559662     -0.349234     -3.387297
  H       1.546739      1.278244     -0.609490
  H       3.740136      0.056010     -1.637939
  H       3.302023     -0.617020     -4.123843
  H      -0.789077     -3.196344     -0.175601
  H      -0.787875     -2.379251      2.417478
  H       1.706329     -1.549599      3.005091
  O       1.455674      2.399722      0.199335
  O       0.536559      0.956822      1.626464
  C       0.983507      2.115531      1.306619
  C       0.933173      3.148842      2.394438
  H       0.913332      4.151513      1.976018
  H       1.833309      3.061428      3.006013
  H       0.078378      2.998932      3.049962
  H       3.248655     -1.905173      0.846667
  H       1.688997     -2.904371     -1.138762
39
Coordinates from ORCA-job reaction4-IEIP_ts_guess_scan_6-8_orca E -1288.399598113102
  Ir      0.602095     -0.723492      0.464518
  C       0.059934     -2.815972      0.376448
  C       0.042488     -2.350778      1.738320
  C       2.190745     -2.122178      0.925136
  C       1.364223     -2.658472     -0.130971
  C       1.379944     -1.964664      2.067606
  N      -1.043934      0.137346     -0.517336
  C      -2.318848      0.414626      0.164355
  C      -3.110458      1.552325     -0.462180
  H      -3.939535      1.809077      0.195801
  H      -3.550044      1.284648     -1.424074
  H      -2.505128      2.450236     -0.588621
  C      -3.144177     -0.864488      0.245309
  H      -2.035474      0.710455      1.175605
  H      -4.057713     -0.677250      0.807883
  H      -3.430014     -1.214311     -0.747511
  H      -2.608416     -1.665189      0.752530
  C      -0.869456      0.387736     -1.760294
  C       0.466332      0.204995     -2.266645
  H      -1.671947      0.757690     -2.391591
  C       1.554082      0.316096     -1.406834
  C       2.759470     -0.012202     -2.092330
  S       0.903671     -0.252665     -3.845750
  C       2.558724     -0.329690     -3.400572
  H       1.551181      1.263969     -0.606836
  H       3.741321      0.041885     -1.644945
  H       3.300034     -0.585700     -4.142348
  H      -0.788032     -3.197196     -0.174119
  H      -0.795523     -2.378758      2.418615
  H       1.696333     -1.547594      3.013099
  O       1.473418      2.386782      0.201525
  O       0.534516      0.957750      1.628109
  C       0.988693      2.112226      1.306249
  C       0.934794      3.152943      2.386961
  H       0.922872      4.153005      1.962139
  H       1.829834      3.065198      3.005955
  H       0.074298      3.011114      3.036811
  H       3.246153     -1.904889      0.860456
  H       1.692918     -2.905423     -1.129731
39
Coordinates from ORCA-job reaction4-IEIP_ts_guess_scan_6-8_orca E -1288.399596985447
  Ir      0.602585     -0.724758      0.465588
  C       0.058204     -2.816746      0.379716
  C       0.039616     -2.349945      1.741077
  C       2.189362     -2.124884      0.930368
  C       1.363446     -2.661574     -0.126114
  C       1.377138     -1.964897      2.071475
  N      -1.043735      0.136911     -0.517695
  C      -2.319614      0.410724      0.163901
  C      -3.111747      1.550384     -0.458709
  H      -3.941424      1.803843      0.199805
  H      -3.550556      1.286177     -1.421899
  H      -2.507084      2.449281     -0.581287
  C      -3.144071     -0.869274      0.238824
  H      -2.037652      0.702806      1.176581
  H      -4.058514     -0.684804      0.800837
  H      -3.428300     -1.215447     -0.755737
  H      -2.608475     -1.671675      0.743628
  C      -0.869799      0.390199     -1.760335
  C       0.465111      0.209673     -2.268097
  H      -1.673378      0.759518     -2.390567
  C       1.552478      0.314285     -1.407129
  C       2.757821     -0.012774     -2.092495
  S       0.903377     -0.238404     -3.849733
  C       2.557359     -0.323117     -3.402678
  H       1.550766      1.262848     -0.606490
  H       3.739306      0.036282     -1.643805
  H       3.298881     -0.576622     -4.145084
  H      -0.789416     -3.197708     -0.171618
  H      -0.799280     -2.376015      2.420345
  H       1.692902     -1.546971      3.016812
  O       1.478518      2.387835      0.199357
  O       0.538569      0.960686      1.627857
  C       0.992992      2.114556      1.304201
  C       0.940494      3.156749      2.383489
  H       0.928133      4.156206      1.957301
  H       1.836309      3.069769      3.001450
  H       0.080792      3.015798      3.034567
  H       3.245203     -1.909317      0.867135
  H       1.693053     -2.910405     -1.124101
39
Coordinates from ORCA-job reaction4-IEIP_ts_guess_scan_6-8_orca E -1288.399598810724
  Ir      0.603115     -0.725262      0.465822
  C       0.059544     -2.817325      0.378404
  C       0.038823     -2.350955      1.739958
  C       2.189788     -2.125078      0.932700
  C       1.365536     -2.661595     -0.125213
  C       1.375800     -1.965693      2.072551
  N      -1.043188      0.136787     -0.517424
  C      -2.318701      0.411084      0.164727
  C      -3.109959      1.552166     -0.456514
  H      -3.939079      1.805855      0.202604
  H      -3.549424      1.289280     -1.419759
  H      -2.504396      2.450511     -0.578574
  C      -3.144102     -0.868375      0.238284
  H      -2.036337      0.701867      1.177684
  H      -4.058375     -0.683903      0.800596
  H      -3.428682     -1.213183     -0.756657
  H      -2.609035     -1.671807      0.742012
  C      -0.870056      0.389113     -1.760388
  C       0.464423      0.208635     -2.268346
  H      -1.674119      0.757681     -2.390455
  C       1.551869      0.313679     -1.407530
  C       2.757223     -0.012227     -2.093028
  S       0.902545     -0.241541     -3.849578
  C       2.556565     -0.323489     -3.403064
  H       1.549607      1.263008     -0.607526
  H       3.738877      0.038477     -1.644909
  H       3.298223     -0.575829     -4.145746
  H      -0.787016     -3.198455     -0.174415
  H      -0.801075     -2.377506      2.417979
  H       1.690061     -1.547967      3.018476
  O       1.476427      2.388322      0.197780
  O       0.539149      0.959984      1.627395
  C       0.992919      2.114069      1.303287
  C       0.939261      3.156557      2.382191
  H       0.924130      4.155791      1.955541
  H       1.836013      3.071900      2.999089
  H       0.080653      3.013897      3.034317
  H       3.245691     -1.909337      0.871287
  H       1.696671     -2.909944     -1.122818
