39
Coordinates from ORCA-job reaction4-IEIP_ts_guess_scan_3-10_orca E -1288.395627232946
  Ir      0.578777     -0.725583      0.478763
  C       0.026108     -2.804708      0.354302
  C       0.094157     -2.362691      1.725469
  C       2.189434     -2.137245      0.794513
  C       1.296876     -2.638738     -0.226520
  C       1.458978     -2.004406      1.988868
  N      -1.047392      0.157622     -0.512511
  C      -2.325806      0.471386      0.147025
  C      -3.131740      1.545548     -0.566269
  H      -3.963779      1.842026      0.070995
  H      -3.568449      1.199156     -1.504301
  H      -2.539385      2.439737     -0.762566
  C      -3.135202     -0.806216      0.333306
  H      -2.044178      0.851155      1.130650
  H      -4.056026     -0.580496      0.869063
  H      -3.408136     -1.245957     -0.626913
  H      -2.597143     -1.551710      0.917028
  C      -0.844879      0.367207     -1.753674
  C       0.503617      0.164037     -2.221609
  H      -1.630757      0.714487     -2.418573
  C       1.602410      0.469061     -1.427270
  C       2.806391      0.083567     -2.082002
  S       0.934225     -0.520446     -3.726496
  C       2.597995     -0.453329     -3.314961
  H       1.533421      1.370009     -0.608039
  H       3.792753      0.251159     -1.674245
  H       3.337515     -0.794919     -4.023585
  H      -0.858474     -3.163535     -0.152046
  H      -0.702338     -2.400574      2.454042
  H       1.837376     -1.617729      2.924236
  O       1.370234      2.413548      0.244154
  O       0.538248      0.925214      1.670314
  C       0.941234      2.104160      1.355308
  C       0.895701      3.112610      2.467035
  H       0.855925      4.123098      2.069532
  H       1.806576      3.024718      3.062609
  H       0.054418      2.939008      3.134391
  H       3.236096     -1.907063      0.661496
  H       1.564589     -2.853976     -1.250775
39
Coordinates from ORCA-job reaction4-IEIP_ts_guess_scan_3-10_orca E -1288.395785779484
  Ir      0.582554     -0.728167      0.479504
  C       0.023641     -2.807602      0.362341
  C       0.090284     -2.362562      1.732287
  C       2.187723     -2.144591      0.804566
  C       1.295829     -2.647031     -0.216415
  C       1.455062     -2.005977      1.996807
  N      -1.047031      0.156826     -0.514450
  C      -2.324588      0.469372      0.145944
  C      -3.130772      1.542895     -0.567920
  H      -3.963585      1.838808      0.068575
  H      -3.566202      1.195995     -1.506393
  H      -2.538916      2.437507     -0.763837
  C      -3.132350     -0.809233      0.331943
  H      -2.042625      0.848878      1.129569
  H      -4.052904     -0.584967      0.868740
  H      -3.405678     -1.248543     -0.628360
  H      -2.592637     -1.554473      0.914527
  C      -0.846764      0.370340     -1.758525
  C       0.502509      0.173547     -2.232636
  H      -1.634405      0.721539     -2.419335
  C       1.599425      0.464923     -1.431116
  C       2.803996      0.082580     -2.087630
  S       0.933667     -0.499398     -3.742334
  C       2.597081     -0.440377     -3.326730
  H       1.532667      1.372331     -0.608576
  H       3.789980      0.244423     -1.676514
  H       3.337390     -0.775610     -4.037471
  H      -0.860797     -3.166024     -0.144543
  H      -0.707339     -2.397271      2.459697
  H       1.832604     -1.617527      2.931775
  O       1.374018      2.417679      0.242255
  O       0.539159      0.926425      1.670851
  C       0.944830      2.105568      1.355672
  C       0.898481      3.113918      2.467287
  H       0.858161      4.124517      2.069976
  H       1.809314      3.026430      3.062922
  H       0.057144      2.939614      3.134318
  H       3.235417     -1.918519      0.673220
  H       1.565027     -2.867054     -1.239249
39
Coordinates from ORCA-job reaction4-IEIP_ts_guess_scan_3-10_orca E -1288.395850696627
  Ir      0.581746     -0.728543      0.480918
  C       0.019554     -2.808024      0.370944
  C       0.081720     -2.359672      1.739405
  C       2.182602     -2.146322      0.817887
  C       1.293927     -2.651229     -0.204160
  C       1.445206     -2.002646      2.006874
  N      -1.044284      0.153220     -0.514554
  C      -2.322078      0.464120      0.145894
  C      -3.129132      1.538472     -0.565822
  H      -3.962352      1.832648      0.070975
  H      -3.564083      1.192913     -1.504978
  H      -2.537902      2.433874     -0.759976
  C      -3.129465     -0.815048      0.330068
  H      -2.040194      0.841843      1.130253
  H      -4.049803     -0.592191      0.867887
  H      -3.403152     -1.252650     -0.630892
  H      -2.588892     -1.560992      0.910799
  C      -0.845038      0.371249     -1.759475
  C       0.503642      0.178957     -2.240597
  H      -1.634217      0.726037     -2.416162
  C       1.600859      0.455145     -1.434350
  C       2.804807      0.080699     -2.097150
  S       0.932860     -0.466556     -3.762047
  C       2.596571     -0.422372     -3.344163
  H       1.537570      1.368951     -0.608586
  H       3.791207      0.233513     -1.683512
  H       3.336047     -0.748331     -4.060021
  H      -0.863457     -3.167137     -0.137877
  H      -0.718301     -2.391642      2.464203
  H       1.819683     -1.611279      2.941852
  O       1.384811      2.416313      0.240846
  O       0.533770      0.927876      1.667905
  C       0.947846      2.104144      1.353574
  C       0.902511      3.113424      2.463782
  H       0.868547      4.124001      2.065793
  H       1.810767      3.021867      3.062754
  H       0.057789      2.943288      3.127503
  H       3.231274     -1.922926      0.690023
  H       1.566405     -2.875806     -1.225078
39
Coordinates from ORCA-job reaction4-IEIP_ts_guess_scan_3-10_orca E -1288.395877000841
  Ir      0.582323     -0.731225      0.484790
  C       0.018140     -2.810625      0.381047
  C       0.076047     -2.358572      1.748101
  C       2.180408     -2.149886      0.832464
  C       1.294634     -2.657211     -0.190747
  C       1.438642     -2.001403      2.018377
  N      -1.042838      0.149702     -0.515344
  C      -2.322048      0.458379      0.144270
  C      -3.127882      1.536439     -0.563245
  H      -3.961800      1.827908      0.073867
  H      -3.561883      1.195458     -1.504495
  H      -2.536112      2.432551     -0.752415
  C      -3.131516     -0.820577      0.321575
  H      -2.041814      0.831539      1.130835
  H      -4.052564     -0.598848      0.858654
  H      -3.403979     -1.253709     -0.641756
  H      -2.593008     -1.569602      0.900018
  C      -0.844630      0.371952     -1.759637
  C       0.502105      0.182727     -2.245386
  H      -1.635592      0.727557     -2.413600
  C       1.599862      0.445646     -1.435509
  C       2.803243      0.080741     -2.104240
  S       0.929342     -0.444084     -3.774496
  C       2.594012     -0.399391     -3.360183
  H       1.539900      1.363112     -0.608843
  H       3.789942      0.226775     -1.688929
  H       3.332925     -0.712344     -4.082385
  H      -0.863478     -3.170555     -0.129615
  H      -0.726319     -2.387618      2.470390
  H       1.810325     -1.607155      2.953277
  O       1.393107      2.412666      0.238932
  O       0.533042      0.929844      1.667034
  C       0.952547      2.102855      1.351515
  C       0.910561      3.115102      2.458863
  H       0.880386      4.124882      2.058622
  H       1.818322      3.021669      3.058328
  H       0.064936      2.949327      3.122547
  H       3.229962     -1.928798      0.707927
  H       1.570121     -2.886035     -1.209868
39
Coordinates from ORCA-job reaction4-IEIP_ts_guess_scan_3-10_orca E -1288.395885856998
  Ir      0.582552     -0.733044      0.488594
  C       0.019037     -2.812600      0.389634
  C       0.071439     -2.357094      1.755484
  C       2.179699     -2.150652      0.847044
  C       1.297870     -2.660981     -0.178066
  C       1.432743     -1.998522      2.029480
  N      -1.042116      0.146186     -0.516452
  C      -2.323080      0.450661      0.142887
  C      -3.127511      1.534669     -0.557210
  H      -3.961923      1.821598      0.081284
  H      -3.560906      1.201254     -1.501437
  H      -2.535104      2.431922     -0.738814
  C      -3.134615     -0.828626      0.308850
  H      -2.045076      0.816287      1.132896
  H      -4.056742     -0.609600      0.845151
  H      -3.405141     -1.254398     -0.658307
  H      -2.598653     -1.582589      0.883136
  C      -0.845429      0.373893     -1.759568
  C       0.498893      0.189599     -2.249987
  H      -1.638787      0.729838     -2.410503
  C       1.597563      0.437697     -1.436783
  C       2.800000      0.078063     -2.109041
  S       0.925280     -0.406642     -3.790775
  C       2.589179     -0.383648     -3.371850
  H       1.542493      1.357189     -0.609352
  H       3.786876      0.210489     -1.689720
  H       3.326987     -0.691737     -4.097257
  H      -0.860458     -3.174093     -0.123610
  H      -0.733756     -2.383981      2.474683
  H       1.800725     -1.601183      2.964561
  O       1.403002      2.408915      0.236963
  O       0.532672      0.933580      1.665558
  C       0.958486      2.102728      1.348990
  C       0.920317      3.118831      2.453031
  H       0.894101      4.127542      2.049939
  H       1.827701      3.023660      3.052821
  H       0.073974      2.958150      3.117116
  H       3.229973     -1.930740      0.726668
  H       1.577108     -2.893433     -1.195298
39
Coordinates from ORCA-job reaction4-IEIP_ts_guess_scan_3-10_orca E -1288.395897339506
  Ir      0.580902     -0.732753      0.489848
  C       0.019086     -2.812172      0.388587
  C       0.068934     -2.357100      1.754774
  C       2.178667     -2.149050      0.850047
  C       1.298832     -2.659453     -0.176810
  C       1.429648     -1.997862      2.031286
  N      -1.041467      0.145795     -0.515415
  C      -2.322390      0.449592      0.144282
  C      -3.125939      1.535825     -0.553496
  H      -3.959821      1.822169      0.085963
  H      -3.560087      1.204842     -1.498228
  H      -2.532738      2.432864     -0.733483
  C      -3.134303     -0.829852      0.306851
  H      -2.044548      0.812838      1.135215
  H      -4.056632     -0.611789      0.843197
  H      -3.404449     -1.253342     -0.661408
  H      -2.598840     -1.585459      0.879631
  C      -0.845065      0.372462     -1.758648
  C       0.498756      0.187726     -2.249150
  H      -1.638955      0.726855     -2.409932
  C       1.598293      0.434394     -1.436455
  C       2.800423      0.078145     -2.110677
  S       0.924468     -0.408729     -3.790169
  C       2.588707     -0.381298     -3.374332
  H       1.543829      1.353102     -0.609346
  H       3.787641      0.211693     -1.692569
  H       3.326074     -0.686063     -4.101604
  H      -0.859231     -3.173947     -0.126469
  H      -0.737613     -2.384385      2.472453
  H       1.795824     -1.600521      2.967080
  O       1.405077      2.405554      0.236188
  O       0.531595      0.933605      1.665207
  C       0.958994      2.101876      1.347912
  C       0.920525      3.119791      2.450661
  H       0.894829      4.127885      2.046018
  H       1.827588      3.025224      3.051027
  H       0.073864      2.960484      3.114681
  H       3.229028     -1.928476      0.731709
  H       1.579863     -2.891281     -1.193685
39
Coordinates from ORCA-job reaction4-IEIP_ts_guess_scan_3-10_orca E -1288.395904040293
  Ir      0.580428     -0.732651      0.491146
  C       0.021011     -2.812415      0.387275
  C       0.067300     -2.357653      1.753845
  C       2.179036     -2.147401      0.854275
  C       1.301947     -2.658139     -0.174877
  C       1.427173     -1.997420      2.033798
  N      -1.041334      0.145318     -0.514582
  C      -2.322192      0.447962      0.145811
  C      -3.123905      1.537846     -0.548456
  H      -3.957226      1.823473      0.092088
  H      -3.558732      1.210768     -1.494217
  H      -2.529094      2.434354     -0.725588
  C      -3.135318     -0.831409      0.302738
  H      -2.044655      0.807227      1.138251
  H      -4.057963     -0.614682      0.839133
  H      -3.404949     -1.250983     -0.667364
  H      -2.601001     -1.589785      0.872934
  C      -0.846005      0.371127     -1.758264
  C       0.497324      0.187268     -2.249382
  H      -1.640898      0.723796     -2.409290
  C       1.597440      0.432002     -1.436866
  C       2.799228      0.076280     -2.111400
  S       0.922931     -0.407413     -3.791331
  C       2.586954     -0.380229     -3.376256
  H       1.544251      1.349950     -0.609569
  H       3.786614      0.208786     -1.693398
  H       3.324030     -0.683402     -4.104500
  H      -0.855592     -3.174942     -0.130153
  H      -0.741042     -2.385635      2.469494
  H       1.790822     -1.600033      2.970560
  O       1.406909      2.403474      0.234860
  O       0.531714      0.934391      1.665193
  C       0.959806      2.102213      1.346605
  C       0.921154      3.121721      2.448056
  H       0.894453      4.129150      2.041825
  H       1.828673      3.028719      3.047972
  H       0.075059      2.962843      3.112870
  H       3.229526     -1.925979      0.738711
  H       1.585495     -2.889309     -1.191206
39
Coordinates from ORCA-job reaction4-IEIP_ts_guess_scan_3-10_orca E -1288.395911934323
  Ir      0.580552     -0.732723      0.493403
  C       0.024475     -2.813317      0.385881
  C       0.063768     -2.358569      1.752869
  C       2.179634     -2.145443      0.863634
  C       1.307866     -2.656984     -0.169763
  C       1.421957     -1.996898      2.039551
  N      -1.040806      0.144227     -0.512922
  C      -2.321746      0.444469      0.148538
  C      -3.119850      1.541600     -0.538624
  H      -3.952421      1.825599      0.103654
  H      -3.555447      1.222321     -1.486655
  H      -2.521849      2.437123     -0.709665
  C      -3.137404     -0.834643      0.294075
  H      -2.044939      0.795537      1.144045
  H      -4.060498     -0.620785      0.830912
  H      -3.406305     -1.246009     -0.679735
  H      -2.605093     -1.598649      0.858616
  C      -0.847650      0.369013     -1.757389
  C       0.494752      0.186850     -2.250369
  H      -1.644516      0.719105     -2.407394
  C       1.595943      0.427574     -1.438087
  C       2.796945      0.074194     -2.114482
  S       0.919449     -0.402820     -3.794821
  C       2.583172     -0.377941     -3.380978
  H       1.545167      1.344882     -0.609892
  H       3.784822      0.205090     -1.697187
  H       3.319513     -0.678498     -4.111064
  H      -0.848869     -3.177281     -0.136013
  H      -0.748104     -2.387426      2.464493
  H       1.780612     -1.599216      2.978116
  O       1.410837      2.400719      0.232129
  O       0.532777      0.936148      1.665089
  C       0.962011      2.103186      1.344065
  C       0.922353      3.125386      2.442970
  H       0.892945      4.131623      2.033934
  H       1.830910      3.035965      3.041833
  H       0.077475      2.966454      3.109257
  H       3.230514     -1.923117      0.753546
  H       1.596420     -2.887559     -1.184832
39
Coordinates from ORCA-job reaction4-IEIP_ts_guess_scan_3-10_orca E -1288.395918262937
  Ir      0.581552     -0.732634      0.495170
  C       0.028509     -2.814303      0.384489
  C       0.059863     -2.359191      1.751679
  C       2.180453     -2.143537      0.874229
  C       1.314721     -2.656191     -0.163731
  C       1.416017     -1.996111      2.045920
  N      -1.040188      0.142941     -0.511057
  C      -2.321259      0.440597      0.151462
  C      -3.115418      1.545642     -0.527738
  H      -3.947430      1.827727      0.116112
  H      -3.551410      1.234902     -1.478380
  H      -2.513908      2.440081     -0.691818
  C      -3.139787     -0.838067      0.284552
  H      -2.045195      0.782426      1.150323
  H      -4.062984     -0.627578      0.822577
  H      -3.408564     -1.239920     -0.693260
  H      -2.609194     -1.608411      0.842081
  C      -0.849470      0.366954     -1.756283
  C       0.492016      0.186524     -2.251720
  H      -1.648403      0.715020     -2.404840
  C       1.594321      0.423749     -1.440040
  C       2.794352      0.071583     -2.118291
  S       0.915189     -0.397621     -3.798939
  C       2.578858     -0.375713     -3.386415
  H       1.546201      1.340510     -0.610258
  H       3.782791      0.200212     -1.701653
  H       3.314346     -0.674342     -4.118158
  H      -0.841211     -3.179958     -0.142228
  H      -0.755943     -2.388880      2.458766
  H       1.768915     -1.597917      2.986459
  O       1.415284      2.398893      0.229101
  O       0.534438      0.938101      1.664438
  C       0.964492      2.104443      1.341124
  C       0.923290      3.129021      2.437571
  H       0.890312      4.134156      2.026032
  H       1.833149      3.043848      3.035058
  H       0.079892      2.969139      3.105430
  H       3.231801     -1.920558      0.770253
  H       1.608973     -2.886348     -1.177276
39
Coordinates from ORCA-job reaction4-IEIP_ts_guess_scan_3-10_orca E -1288.395923819947
  Ir      0.583543     -0.732823      0.496773
  C       0.033735     -2.815875      0.382952
  C       0.054588     -2.359864      1.750105
  C       2.181478     -2.141769      0.888283
  C       1.323747     -2.656157     -0.155434
  C       1.407908     -1.995120      2.054210
  N      -1.039352      0.140995     -0.508658
  C      -2.320602      0.435693      0.155063
  C      -3.109667      1.550707     -0.513890
  H      -3.941297      1.830148      0.131584
  H      -3.545630      1.250801     -1.467966
  H      -2.503778      2.443794     -0.668770
  C      -3.143039     -0.842051      0.272608
  H      -2.045386      0.765637      1.158083
  H      -4.065770     -0.635890      0.813112
  H      -3.412700     -1.231223     -0.710088
  H      -2.614158     -1.620663      0.820217
  C      -0.851468      0.364645     -1.754525
  C       0.488900      0.185772     -2.253260
  H      -1.652653      0.711248     -2.401102
  C       1.592679      0.419497     -1.442754
  C       2.791375      0.069654     -2.124360
  S       0.909210     -0.392193     -3.803717
  C       2.573319     -0.373074     -3.393719
  H       1.547535      1.335523     -0.610631
  H       3.780664      0.196418     -1.709196
  H       3.307552     -0.669477     -4.127622
  H      -0.831315     -3.183723     -0.149867
  H      -0.766328     -2.390395      2.451223
  H       1.753091     -1.595939      2.997212
  O       1.420918      2.397183      0.225241
  O       0.536978      0.940353      1.663087
  C       0.967635      2.105836      1.337250
  C       0.924094      3.133272      2.430695
  H       0.886015      4.137095      2.016321
  H       1.835775      3.053983      3.026201
  H       0.082766      2.971567      3.100651
  H       3.233471     -1.918379      0.792279
  H       1.625537     -2.886015     -1.166853
39
Coordinates from ORCA-job reaction4-IEIP_ts_guess_scan_3-10_orca E -1288.395926161273
  Ir      0.585309     -0.733071      0.497179
  C       0.037724     -2.817014      0.381476
  C       0.050385     -2.360174      1.748428
  C       2.182171     -2.140548      0.898738
  C       1.330752     -2.656520     -0.149284
  C       1.401344     -1.994071      2.060052
  N      -1.038847      0.139417     -0.507086
  C      -2.320117      0.432306      0.157555
  C      -3.105872      1.553959     -0.504221
  H      -3.937555      1.831128      0.142134
  H      -3.541372      1.261424     -1.460761
  H      -2.497334      2.446355     -0.652453
  C      -3.145250     -0.844656      0.264867
  H      -2.045278      0.754110      1.163290
  H      -4.066905     -0.641667      0.808379
  H      -3.416842     -1.224520     -0.720944
  H      -2.616820     -1.629183      0.804455
  C      -0.852684      0.363524     -1.753090
  C       0.486927      0.185228     -2.254301
  H      -1.655015      0.710291     -2.398201
  C       1.591790      0.417150     -1.444971
  C       2.789426      0.068327     -2.129116
  S       0.904529     -0.388908     -3.806807
  C       2.569416     -0.371289     -3.399120
  H       1.548573      1.332330     -0.610877
  H       3.779334      0.193620     -1.714984
  H       3.302631     -0.666464     -4.134521
  H      -0.823807     -3.186474     -0.155899
  H      -0.774406     -2.391291      2.444959
  H       1.740423     -1.593817      3.004835
  O       1.425197      2.396250      0.222604
  O       0.538777      0.941725      1.661450
  C       0.969890      2.106486      1.334394
  C       0.924595      3.135901      2.425848
  H       0.882739      4.138862      2.009710
  H       1.837649      3.060964      3.019819
  H       0.084834      2.972704      3.097376
  H       3.234658     -1.917071      0.808840
  H       1.638401     -2.886132     -1.159011
39
Coordinates from ORCA-job reaction4-IEIP_ts_guess_scan_3-10_orca E -1288.395926602763
  Ir      0.586153     -0.733390      0.497045
  C       0.040018     -2.817650      0.380222
  C       0.047714     -2.360443      1.747065
  C       2.182431     -2.139815      0.904635
  C       1.334911     -2.656848     -0.145970
  C       1.397168     -1.993334      2.063114
  N      -1.038797      0.138530     -0.506479
  C      -2.319990      0.430690      0.158710
  C      -3.104492      1.555152     -0.499737
  H      -3.936500      1.830701      0.146881
  H      -3.539418      1.265974     -1.457547
  H      -2.495219      2.447597     -0.644565
  C      -3.146295     -0.845902      0.261666
  H      -2.045186      0.748933      1.165582
  H      -4.066831     -0.644533      0.807655
  H      -3.419861     -1.221023     -0.725414
  H      -2.617532     -1.633393      0.796601
  C      -0.853146      0.363552     -1.752270
  C       0.486086      0.185025     -2.254692
  H      -1.655605      0.711319     -2.396726
  C       1.591578      0.416104     -1.446082
  C       2.788588      0.068013     -2.131914
  S       0.901839     -0.387711     -3.808014
  C       2.567425     -0.370478     -3.401985
  H       1.549153      1.330548     -0.610934
  H       3.778834      0.192778     -1.718428
  H       3.299964     -0.665000     -4.138303
  H      -0.819463     -3.187940     -0.159860
  H      -0.779350     -2.391963      2.440878
  H       1.732527     -1.592253      3.008893
  O       1.427717      2.395573      0.221420
  O       0.539512      0.942272      1.660294
  C       0.971180      2.106480      1.332982
  C       0.925399      3.137026      2.423449
  H       0.881720      4.139530      2.006396
  H       1.839275      3.064230      3.016429
  H       0.086582      2.973324      3.096035
  H       3.235209     -1.916345      0.818405
  H       1.646073     -2.886140     -1.154699
39
Coordinates from ORCA-job reaction4-IEIP_ts_guess_scan_3-10_orca E -1288.395926665047
  Ir      0.586197     -0.733514      0.496838
  C       0.041142     -2.817829      0.379139
  C       0.046292     -2.360693      1.746030
  C       2.182440     -2.139116      0.907230
  C       1.336970     -2.656695     -0.144749
  C       1.394950     -1.992848      2.064289
  N      -1.038987      0.138299     -0.506450
  C      -2.320071      0.430187      0.159063
  C      -3.104616      1.555138     -0.498447
  H      -3.936922      1.829677      0.148225
  H      -3.539182      1.266852     -1.456687
  H      -2.495645      2.447975     -0.642099
  C      -3.146468     -0.846421      0.261093
  H      -2.045160      0.747701      1.166138
  H      -4.066271     -0.645705      0.808551
  H      -3.421304     -1.219961     -0.726229
  H      -2.617167     -1.634873      0.794077
  C      -0.853336      0.364055     -1.752037
  C       0.485754      0.185223     -2.254847
  H      -1.655572      0.712675     -2.396328
  C       1.591507      0.415752     -1.446483
  C       2.788231      0.067543     -2.132809
  S       0.900745     -0.387125     -3.808392
  C       2.566647     -0.370285     -3.402990
  H       1.549382      1.329727     -0.610955
  H       3.778566      0.191798     -1.719379
  H       3.298849     -0.664655     -4.139695
  H      -0.817293     -3.188471     -0.162370
  H      -0.781896     -2.392568      2.438484
  H       1.728418     -1.591334      3.010563
  O       1.429035      2.395118      0.221087
  O       0.539540      0.942488      1.659691
  C       0.971911      2.106340      1.332514
  C       0.926422      3.137340      2.422658
  H       0.882192      4.139648      2.005203
  H       1.840728      3.065154      3.015056
  H       0.088101      2.973728      3.095887
  H       3.235342     -1.915539      0.822894
  H       1.649895     -2.885593     -1.153025
