39
Generated by autodE on: 2023-08-15. E = -1288.399222 Ha
Ir    0.62049  -0.73443   0.39612
C     0.17043  -2.85527   0.31944
C    -0.08707  -2.42097   1.66928
C     2.14847  -2.05340   1.20324
C     1.54467  -2.65689   0.05079
C     1.12982  -1.94545   2.19664
N    -1.07668   0.11349  -0.50987
C    -2.34226   0.30341   0.21320
C    -3.13345   1.52069  -0.24350
H    -3.96103   1.68108   0.44564
H    -3.57285   1.39474  -1.23397
H    -2.52545   2.42567  -0.24147
C    -3.17251  -0.97193   0.11548
H    -2.05352   0.45726   1.25408
H    -4.07064  -0.87837   0.72465
H    -3.48443  -1.15936  -0.91276
H    -2.62502  -1.84452   0.46803
C    -0.93267   0.48369  -1.72979
C     0.38310   0.30283  -2.26109
H    -1.74037   0.92954  -2.30065
C     1.39721   0.00997  -1.34050
C     2.62311  -0.21709  -2.04934
S     0.90284   0.32549  -3.87265
C     2.49973  -0.07511  -3.39694
H     1.61394   1.14355  -0.70059
H     3.56946  -0.41641  -1.56729
H     3.27387  -0.16372  -4.14398
H    -0.54378  -3.30539  -0.35439
H    -1.02618  -2.48126   2.19749
H     1.25709  -1.50080   3.17351
O     1.72086   2.32455   0.04358
O     0.60070   1.03631   1.47280
C     1.14724   2.13084   1.13476
C     1.11470   3.24687   2.13752
H     1.00538   4.20765   1.64001
H     2.06504   3.26643   2.67383
H     0.31878   3.10802   2.86373
H     3.19388  -1.82270   1.33759
H     2.04648  -2.90982  -0.87191
