39
Coordinates from ORCA-job reaction4-IEIP_ts_guess_scan_9-6_orca E -1288.400624533496
  Ir      0.621380     -0.712398      0.430454
  C       0.099061     -2.815557      0.337405
  C       0.043756     -2.355693      1.699348
  C       2.210343     -2.097560      0.936456
  C       1.415287     -2.646286     -0.136274
  C       1.365649     -1.949575      2.058991
  N      -1.047612      0.141422     -0.522185
  C      -2.314246      0.407452      0.178109
  C      -3.101807      1.570473     -0.406625
  H      -3.924415      1.812225      0.264968
  H      -3.549329      1.336075     -1.373439
  H      -2.490108      2.467045     -0.509307
  C      -3.146863     -0.868833      0.222919
  H      -2.021114      0.668885      1.195787
  H      -4.051275     -0.698153      0.805197
  H      -3.448611     -1.178921     -0.778367
  H      -2.608123     -1.691729      0.690204
  C      -0.889711      0.399838     -1.760942
  C       0.440236      0.202771     -2.257901
  H      -1.692309      0.780853     -2.385088
  C       1.506208      0.243018     -1.360445
  C       2.720545     -0.082462     -2.036499
  S       0.902584     -0.205379     -3.839672
  C       2.543564     -0.342645     -3.359961
  H       1.523274      1.210815     -0.602378
  H       3.693363     -0.067438     -1.566930
  H       3.296190     -0.584964     -4.094895
  H      -0.729669     -3.208578     -0.233761
  H      -0.810385     -2.392662      2.358658
  H       1.653485     -1.526986      3.011214
  O       1.466317      2.399565      0.161711
  O       0.547563      0.969471      1.598993
  C       0.990242      2.126841      1.269523
  C       0.932346      3.171362      2.347189
  H       0.906989      4.169554      1.918534
  H       1.832429      3.095577      2.960285
  H       0.077662      3.023020      3.003197
  H       3.266444     -1.877601      0.902279
  H       1.770026     -2.893653     -1.126014
39
Coordinates from ORCA-job reaction4-IEIP_ts_guess_scan_9-6_orca E -1288.400415902399
  Ir      0.617003     -0.703429      0.425331
  C       0.102486     -2.810890      0.338799
  C       0.045661     -2.350150      1.700225
  C       2.210207     -2.083032      0.936790
  C       1.417977     -2.637479     -0.134914
  C       1.364443     -1.936491      2.058455
  N      -1.059047      0.139543     -0.526635
  C      -2.325694      0.404361      0.174238
  C      -3.118197      1.561311     -0.415836
  H      -3.941323      1.803173      0.255062
  H      -3.565335      1.320263     -1.381199
  H      -2.510166      2.459818     -0.523464
  C      -3.153372     -0.874807      0.226508
  H      -2.032555      0.672083      1.190283
  H      -4.057573     -0.704794      0.809299
  H      -3.455420     -1.190943     -0.772805
  H      -2.610718     -1.693303      0.696958
  C      -0.901343      0.391134     -1.771569
  C       0.432335      0.197578     -2.270878
  H      -1.705973      0.765079     -2.397327
  C       1.496774      0.245620     -1.371436
  C       2.714032     -0.077306     -2.044083
  S       0.899267     -0.214999     -3.849934
  C       2.540304     -0.344690     -3.366486
  H       1.512226      1.236870     -0.632952
  H       3.686206     -0.054387     -1.573321
  H       3.295300     -0.587125     -4.098861
  H      -0.724494     -3.208725     -0.231617
  H      -0.807989     -2.390292      2.359896
  H       1.650190     -1.511138      3.010071
  O       1.588853      2.363760      0.218194
  O       0.530768      0.979898      1.597473
  C       1.032352      2.118938      1.295123
  C       0.948585      3.170772      2.363599
  H       0.987946      4.166925      1.931188
  H       1.805761      3.063969      3.031147
  H       0.050149      3.058513      2.966011
  H       3.265659     -1.860021      0.903183
  H       1.774089     -2.886413     -1.123777
39
Coordinates from ORCA-job reaction4-IEIP_ts_guess_scan_9-6_orca E -1288.400267895550
  Ir      0.626706     -0.710701      0.426336
  C       0.099893     -2.818786      0.336216
  C       0.045998     -2.366394      1.700399
  C       2.210020     -2.103604      0.937342
  C       1.416263     -2.650255     -0.136845
  C       1.363902     -1.957787      2.058762
  N      -1.049205      0.145310     -0.514822
  C      -2.314943      0.409661      0.187696
  C      -3.101187      1.575178     -0.393856
  H      -3.924891      1.814468      0.277222
  H      -3.546908      1.344579     -1.362453
  H      -2.489313      2.472174     -0.492123
  C      -3.148407     -0.866141      0.227410
  H      -2.022014      0.666870      1.206515
  H      -4.052170     -0.697670      0.811314
  H      -3.451323     -1.171532     -0.774994
  H      -2.609506     -1.691333      0.690358
  C      -0.884002      0.410234     -1.765096
  C       0.454261      0.213054     -2.272739
  H      -1.686286      0.794460     -2.387533
  C       1.518093      0.229827     -1.369185
  C       2.731758     -0.107522     -2.042628
  S       0.919585     -0.185354     -3.855436
  C       2.557028     -0.354889     -3.368497
  H       1.567366      1.246245     -0.643943
  H       3.703161     -0.106277     -1.569401
  H       3.309744     -0.602267     -4.101420
  H      -0.728881     -3.210713     -0.235758
  H      -0.807189     -2.406708      2.360468
  H       1.651143     -1.538081      3.012422
  O       1.398157      2.403342      0.151480
  O       0.542198      0.971089      1.612836
  C       0.959299      2.132516      1.276484
  C       0.917403      3.181346      2.349541
  H       0.864608      4.177098      1.917489
  H       1.835926      3.121681      2.936429
  H       0.084305      3.022939      3.030173
  H       3.267043     -1.888007      0.906613
  H       1.771736     -2.898863     -1.126035
39
Coordinates from ORCA-job reaction4-IEIP_ts_guess_scan_9-6_orca E -1288.400882891643
  Ir      0.619375     -0.713660      0.430132
  C       0.091584     -2.818605      0.348714
  C       0.038597     -2.358179      1.710128
  C       2.203548     -2.102065      0.944050
  C       1.407929     -2.653138     -0.126590
  C       1.358638     -1.949974      2.066054
  N      -1.051416      0.139193     -0.519292
  C      -2.319009      0.400690      0.179468
  C      -3.107320      1.563658     -0.404306
  H      -3.932770      1.801531      0.265201
  H      -3.550862      1.330966     -1.373377
  H      -2.497399      2.461942     -0.502374
  C      -3.149004     -0.877491      0.218898
  H      -2.028151      0.659483      1.198428
  H      -4.054300     -0.710794      0.800976
  H      -3.449143     -1.184704     -0.783737
  H      -2.608727     -1.700733      0.683779
  C      -0.890263      0.404527     -1.761693
  C       0.443471      0.213838     -2.265075
  H      -1.693693      0.787950     -2.383079
  C       1.507724      0.233688     -1.363308
  C       2.723901     -0.086010     -2.040320
  S       0.909334     -0.173722     -3.850202
  C       2.550237     -0.320744     -3.368851
  H       1.536590      1.219224     -0.610384
  H       3.695382     -0.080780     -1.567664
  H       3.304402     -0.551841     -4.105802
  H      -0.738090     -3.212163     -0.220722
  H      -0.814682     -2.393169      2.370504
  H       1.647176     -1.525117      3.017041
  O       1.477805      2.405815      0.156917
  O       0.550566      0.975391      1.593477
  C       0.999423      2.130161      1.265092
  C       0.943757      3.175496      2.341028
  H       0.920319      4.173455      1.911689
  H       1.843608      3.098250      2.954203
  H       0.088487      3.028776      2.996479
  H       3.260446     -1.886120      0.910499
  H       1.761902     -2.905836     -1.115240
39
Coordinates from ORCA-job reaction4-IEIP_ts_guess_scan_9-6_orca E -1288.400955778940
  Ir      0.619843     -0.712568      0.429475
  C       0.094443     -2.818238      0.349373
  C       0.039134     -2.358075      1.710602
  C       2.204686     -2.099069      0.947114
  C       1.411308     -2.651587     -0.124239
  C       1.357837     -1.947693      2.067771
  N      -1.051990      0.138173     -0.521057
  C      -2.319362      0.400413      0.178229
  C      -3.108391      1.562999     -0.405449
  H      -3.933200      1.801218      0.264704
  H      -3.552939      1.329693     -1.373890
  H      -2.498657      2.461293     -0.504665
  C      -3.149809     -0.877462      0.219639
  H      -2.027790      0.660072      1.196859
  H      -4.054623     -0.709909      0.802238
  H      -3.450785     -1.185535     -0.782480
  H      -2.609483     -1.700382      0.684915
  C      -0.891442      0.402975     -1.763804
  C       0.441661      0.212665     -2.268600
  H      -1.695430      0.786032     -2.384631
  C       1.505858      0.231269     -1.366969
  C       2.721707     -0.087133     -2.044833
  S       0.907750     -0.165548     -3.855747
  C       2.547280     -0.322698     -3.373145
  H       1.537645      1.225328     -0.623580
  H       3.693200     -0.084037     -1.572217
  H       3.300878     -0.555360     -4.110134
  H      -0.733911     -3.213001     -0.221124
  H      -0.815004     -2.393764      2.369805
  H       1.644560     -1.522033      3.018959
  O       1.497099      2.396125      0.168754
  O       0.544931      0.976548      1.594483
  C       1.001364      2.128343      1.271034
  C       0.943399      3.175565      2.345369
  H       0.931960      4.173201      1.914798
  H       1.836601      3.092116      2.967456
  H       0.080660      3.036273      2.992614
  H       3.261490     -1.882405      0.915325
  H       1.766894     -2.904614     -1.112213
39
Coordinates from ORCA-job reaction4-IEIP_ts_guess_scan_9-6_orca E -1288.400982478280
  Ir      0.620205     -0.715206      0.430721
  C       0.092563     -2.820286      0.352973
  C       0.036728     -2.359797      1.713944
  C       2.203017     -2.102837      0.951572
  C       1.410039     -2.655388     -0.119904
  C       1.355175     -1.949895      2.071407
  N      -1.050985      0.137139     -0.520640
  C      -2.318557      0.399003      0.178737
  C      -3.107206      1.562952     -0.402819
  H      -3.931896      1.800192      0.267806
  H      -3.551939      1.331586     -1.371640
  H      -2.497218      2.461264     -0.500408
  C      -3.149891     -0.878385      0.218076
  H      -2.027121      0.656869      1.197884
  H      -4.054662     -0.711141      0.800824
  H      -3.450936     -1.184648     -0.784582
  H      -2.610173     -1.702394      0.682098
  C      -0.890181      0.403999     -1.763277
  C       0.442361      0.213685     -2.269531
  H      -1.694319      0.788221     -2.383218
  C       1.506148      0.225683     -1.367304
  C       2.722317     -0.088021     -2.046832
  S       0.908396     -0.157228     -3.858240
  C       2.548796     -0.310964     -3.377474
  H       1.540359      1.223291     -0.626181
  H       3.693628     -0.087967     -1.573836
  H       3.302893     -0.535850     -4.116352
  H      -0.735698     -3.214635     -0.217961
  H      -0.817983     -2.394035      2.372455
  H       1.641569     -1.523631      3.022431
  O       1.495498      2.394860      0.164779
  O       0.547609      0.976199      1.593796
  C       1.004362      2.127020      1.269392
  C       0.943331      3.177421      2.340528
  H       0.927732      4.173752      1.907055
  H       1.837466      3.099092      2.961900
  H       0.081749      3.036819      2.989058
  H       3.260162     -1.887747      0.920871
  H       1.766034     -2.909801     -1.107368
39
Coordinates from ORCA-job reaction4-IEIP_ts_guess_scan_9-6_orca E -1288.401022867239
  Ir      0.619486     -0.720371      0.433814
  C       0.088737     -2.824144      0.361781
  C       0.030116     -2.361991      1.721845
  C       2.198656     -2.108464      0.963727
  C       1.407900     -2.662331     -0.108386
  C       1.347516     -1.952007      2.080969
  N      -1.049688      0.133596     -0.520424
  C      -2.318035      0.393409      0.178624
  C      -3.106166      1.559967     -0.398518
  H      -3.931160      1.794362      0.272698
  H      -3.550499      1.332826     -1.368523
  H      -2.496102      2.458690     -0.491945
  C      -3.150287     -0.883578      0.212275
  H      -2.027638      0.647226      1.199108
  H      -4.055501     -0.717947      0.794771
  H      -3.450525     -1.185669     -0.791898
  H      -2.611590     -1.709784      0.673544
  C      -0.888579      0.406256     -1.761855
  C       0.442819      0.218762     -2.270721
  H      -1.693082      0.793893     -2.379258
  C       1.505523      0.214807     -1.367141
  C       2.722543     -0.087532     -2.050456
  S       0.910814     -0.122502     -3.865085
  C       2.550419     -0.286558     -3.385135
  H       1.543478      1.216507     -0.626954
  H       3.693136     -0.097990     -1.576124
  H       3.305016     -0.499165     -4.127120
  H      -0.738460     -3.218566     -0.210664
  H      -0.826494     -2.393074      2.377993
  H       1.632038     -1.523472      3.031550
  O       1.490080      2.395360      0.152571
  O       0.551974      0.977163      1.589600
  C       1.004514      2.127461      1.260416
  C       0.950856      3.180204      2.329804
  H       0.929274      4.175577      1.894436
  H       1.850703      3.105080      2.943275
  H       0.095396      3.039054      2.986271
  H       3.256376     -1.895900      0.936188
  H       1.765804     -2.919960     -1.094312
39
Coordinates from ORCA-job reaction4-IEIP_ts_guess_scan_9-6_orca E -1288.401043826144
  Ir      0.619116     -0.723333      0.435706
  C       0.087013     -2.826008      0.366267
  C       0.024841     -2.362408      1.725653
  C       2.195901     -2.111127      0.973123
  C       1.407882     -2.666031     -0.100316
  C       1.341328     -1.952417      2.087650
  N      -1.048416      0.131219     -0.520190
  C      -2.316895      0.389407      0.179207
  C      -3.104694      1.557741     -0.394858
  H      -3.929603      1.790403      0.277059
  H      -3.549097      1.333404     -1.365485
  H      -2.494467      2.456601     -0.485849
  C      -3.149615     -0.887384      0.208944
  H      -2.026904      0.640540      1.200475
  H      -4.055135     -0.723026      0.791338
  H      -3.449330     -1.186573     -0.796250
  H      -2.611534     -1.715126      0.668143
  C      -0.888186      0.407871     -1.760434
  C       0.441777      0.222099     -2.271440
  H      -1.693322      0.797764     -2.375565
  C       1.504499      0.207011     -1.368073
  C       2.721328     -0.087857     -2.054845
  S       0.910035     -0.097006     -3.870139
  C       2.548946     -0.270541     -3.391898
  H       1.545184      1.209875     -0.627455
  H       3.691757     -0.106689     -1.580500
  H       3.303172     -0.475558     -4.136396
  H      -0.738626     -3.220717     -0.208212
  H      -0.833832     -2.391406      2.379177
  H       1.623496     -1.522261      3.038208
  O       1.501946      2.390274      0.150358
  O       0.553633      0.977855      1.586541
  C       1.010664      2.125781      1.256829
  C       0.953514      3.182508      2.322126
  H       0.933362      4.176243      1.882968
  H       1.851489      3.109648      2.938601
  H       0.095961      3.043785      2.976333
  H       3.253954     -1.899848      0.948795
  H       1.768229     -2.925522     -1.084858
39
Coordinates from ORCA-job reaction4-IEIP_ts_guess_scan_9-6_orca E -1288.401054817803
  Ir      0.618813     -0.724467      0.437064
  C       0.086671     -2.826681      0.368259
  C       0.020378     -2.361714      1.727112
  C       2.194026     -2.111747      0.981112
  C       1.409195     -2.667557     -0.094156
  C       1.335862     -1.951677      2.092790
  N      -1.048006      0.130125     -0.519830
  C      -2.316890      0.386239      0.179771
  C      -3.104916      1.555704     -0.391833
  H      -3.929911      1.786618      0.280588
  H      -3.549196      1.333469     -1.362994
  H      -2.494923      2.454917     -0.480821
  C      -3.149356     -0.890802      0.205792
  H      -2.027615      0.635209      1.201752
  H      -4.055432     -0.728113      0.787814
  H      -3.448156     -1.187587     -0.800384
  H      -2.611550     -1.719648      0.663263
  C      -0.888306      0.409618     -1.759460
  C       0.440755      0.224489     -2.271905
  H      -1.693947      0.800508     -2.373227
  C       1.503844      0.201333     -1.369224
  C       2.720153     -0.089206     -2.058466
  S       0.908361     -0.082560     -3.873193
  C       2.547314     -0.259386     -3.397191
  H       1.547239      1.203896     -0.626941
  H       3.690671     -0.113506     -1.584591
  H       3.301229     -0.458301     -4.143659
  H      -0.737033     -3.222041     -0.208523
  H      -0.840377     -2.389642      2.377946
  H       1.615251     -1.520423      3.043675
  O       1.512376      2.385249      0.149844
  O       0.553508      0.979101      1.585001
  C       1.013457      2.125464      1.254094
  C       0.957511      3.184348      2.317241
  H       0.940358      4.177167      1.875878
  H       1.854598      3.110731      2.934922
  H       0.098757      3.049034      2.970524
  H       3.252238     -1.900934      0.960074
  H       1.772422     -2.928037     -1.077379
39
Coordinates from ORCA-job reaction4-IEIP_ts_guess_scan_9-6_orca E -1288.401065831973
  Ir      0.619219     -0.724695      0.437904
  C       0.087799     -2.826842      0.367678
  C       0.016686     -2.360982      1.726210
  C       2.193145     -2.111607      0.987988
  C       1.412057     -2.667855     -0.089770
  C       1.330976     -1.951084      2.096556
  N      -1.047455      0.130037     -0.518764
  C      -2.316628      0.383883      0.181364
  C      -3.104887      1.554755     -0.387245
  H      -3.929841      1.783811      0.285861
  H      -3.549202      1.334970     -1.358943
  H      -2.495036      2.454273     -0.474055
  C      -3.148892     -0.893360      0.203082
  H      -2.027941      0.630233      1.204119
  H      -4.055495     -0.732631      0.784856
  H      -3.446862     -1.187222     -0.804198
  H      -2.611399     -1.723596      0.658341
  C      -0.888307      0.412340     -1.757988
  C       0.440033      0.227622     -2.271967
  H      -1.694379      0.804471     -2.370326
  C       1.503956      0.196886     -1.370684
  C       2.719041     -0.092135     -2.062265
  S       0.906320     -0.068619     -3.875868
  C       2.544541     -0.254698     -3.401832
  H       1.551325      1.197577     -0.624875
  H       3.689862     -0.122153     -1.589361
  H       3.297403     -0.451733     -4.149857
  H      -0.733581     -3.222917     -0.211896
  H      -0.846295     -2.388727      2.374119
  H       1.607066     -1.519404      3.048216
  O       1.524149      2.379702      0.151042
  O       0.553564      0.979947      1.584493
  C       1.018689      2.124345      1.253302
  C       0.957982      3.186725      2.312532
  H       0.942174      4.177936      1.867456
  H       1.852792      3.115802      2.933773
  H       0.096694      3.053369      2.962828
  H       3.251420     -1.900809      0.970634
  H       1.778675     -2.928425     -1.071718
39
Coordinates from ORCA-job reaction4-IEIP_ts_guess_scan_9-6_orca E -1288.401077893304
  Ir      0.619840     -0.723774      0.438683
  C       0.090868     -2.826574      0.364894
  C       0.012101     -2.360014      1.723083
  C       2.192515     -2.109697      0.996917
  C       1.417527     -2.666615     -0.084834
  C       1.324178     -1.949787      2.100816
  N      -1.047070      0.130694     -0.517102
  C      -2.316613      0.381730      0.183434
  C      -3.105315      1.554013     -0.381903
  H      -3.930372      1.780843      0.291809
  H      -3.549448      1.336809     -1.354269
  H      -2.495787      2.453982     -0.466222
  C      -3.148396     -0.895889      0.200015
  H      -2.028721      0.625120      1.207102
  H      -4.055671     -0.737738      0.781474
  H      -3.445320     -1.186278     -0.808586
  H      -2.611125     -1.727734      0.652586
  C      -0.888638      0.415508     -1.756086
  C       0.438778      0.231006     -2.271996
  H      -1.695361      0.808595     -2.366934
  C       1.503964      0.192342     -1.372979
  C       2.717094     -0.096605     -2.067308
  S       0.902178     -0.058154     -3.878436
  C       2.540051     -0.251770     -3.407614
  H       1.557593      1.189983     -0.621882
  H       3.688568     -0.131786     -1.596136
  H       3.291467     -0.447255     -4.157495
  H      -0.726750     -3.224050     -0.218989
  H      -0.854084     -2.388820      2.366684
  H       1.594836     -1.517993      3.053991
  O       1.538184      2.372421      0.153791
  O       0.552611      0.981035      1.584828
  C       1.024385      2.122941      1.253365
  C       0.959140      3.189187      2.308268
  H       0.944415      4.178575      1.859016
  H       1.851950      3.121506      2.932682
  H       0.095572      3.057971      2.955903
  H       3.250701     -1.898120      0.985142
  H       1.789527     -2.926419     -1.064971
39
Coordinates from ORCA-job reaction4-IEIP_ts_guess_scan_9-6_orca E -1288.401086966160
  Ir      0.620127     -0.722309      0.439391
  C       0.095297     -2.826475      0.361292
  C       0.007153     -2.359648      1.719109
  C       2.191886     -2.106208      1.007197
  C       1.424614     -2.664424     -0.079240
  C       1.316035     -1.947956      2.105540
  N      -1.047554      0.131361     -0.515593
  C      -2.317659      0.379473      0.184997
  C      -3.106974      1.553034     -0.377046
  H      -3.932357      1.777332      0.297089
  H      -3.550667      1.338395     -1.350185
  H      -2.497994      2.453627     -0.458602
  C      -3.148799     -0.898631      0.196338
  H      -2.030750      0.619832      1.209647
  H      -4.056630     -0.743355      0.777727
  H      -3.444862     -1.185301     -0.813588
  H      -2.611493     -1.732103      0.645868
  C      -0.889699      0.418046     -1.754442
  C       0.436808      0.234083     -2.272247
  H      -1.697137      0.811636     -2.364039
  C       1.503179      0.188458     -1.375488
  C       2.714388     -0.100702     -2.072527
  S       0.897023     -0.050267     -3.880899
  C       2.534782     -0.249554     -3.413410
  H       1.564167      1.183016     -0.618832
  H       3.686599     -0.139758     -1.603205
  H       3.284833     -0.443619     -4.165021
  H      -0.717663     -3.225976     -0.227663
  H      -0.862705     -2.390691      2.357649
  H       1.579783     -1.516027      3.060602
  O       1.553768      2.365329      0.157205
  O       0.551460      0.982910      1.585115
  C       1.031152      2.121766      1.253828
  C       0.963343      3.191522      2.304953
  H       0.949355      4.179284      1.852012
  H       1.855107      3.126632      2.931112
  H       0.098460      3.062471      2.951199
  H       3.249806     -1.893111      1.002126
  H       1.803188     -2.922903     -1.057225
39
Coordinates from ORCA-job reaction4-IEIP_ts_guess_scan_9-6_orca E -1288.401093343369
  Ir      0.619784     -0.720865      0.439856
  C       0.100203     -2.826627      0.357529
  C       0.002036     -2.360070      1.714976
  C       2.190949     -2.101611      1.017846
  C       1.432179     -2.661719     -0.073371
  C       1.307068     -1.945764      2.110339
  N      -1.048704      0.131598     -0.514524
  C      -2.319280      0.377179      0.185988
  C      -3.109138      1.551774     -0.373224
  H      -3.934939      1.773711      0.301156
  H      -3.552284      1.339378     -1.347111
  H      -2.500729      2.452978     -0.452194
  C      -3.149745     -0.901424      0.192914
  H      -2.033215      0.614897      1.211495
  H      -4.057742     -0.748888      0.774781
  H      -3.445564     -1.184608     -0.818076
  H      -2.612001     -1.736333      0.639272
  C      -0.891417      0.419593     -1.753213
  C       0.434258      0.236480     -2.272710
  H      -1.699586      0.813357     -2.361789
  C       1.501574      0.185572     -1.377802
  C       2.711253     -0.103643     -2.077231
  S       0.891718     -0.044069     -3.883116
  C       2.529537     -0.247335     -3.418530
  H       1.570061      1.177624     -0.616675
  H       3.684100     -0.145422     -1.609470
  H       3.278487     -0.440018     -4.171592
  H      -0.707742     -3.228421     -0.236714
  H      -0.871637     -2.393978      2.348141
  H       1.563195     -1.513472      3.067325
  O       1.569555      2.359232      0.160504
  O       0.550178      0.985178      1.584358
  C       1.038389      2.120700      1.254116
  C       0.969898      3.193186      2.302454
  H       0.956162      4.179705      1.846712
  H       1.861587      3.130405      2.928912
  H       0.104700      3.065973      2.948573
  H       3.248456     -1.886505      1.019903
  H       1.817766     -2.918558     -1.049068
39
Coordinates from ORCA-job reaction4-IEIP_ts_guess_scan_9-6_orca E -1288.401099628072
  Ir      0.618558     -0.719100      0.440280
  C       0.108246     -2.827327      0.351691
  C      -0.005888     -2.361777      1.708557
  C       2.189196     -2.093634      1.034503
  C       1.444251     -2.657260     -0.064050
  C       1.292578     -1.942211      2.117744
  N      -1.051314      0.131366     -0.513479
  C      -2.322506      0.373432      0.186963
  C      -3.113032      1.549544     -0.368146
  H      -3.939520      1.767997      0.306508
  H      -3.555300      1.340539     -1.343170
  H      -2.505419      2.451608     -0.443163
  C      -3.152016     -0.905871      0.187764
  H      -2.037553      0.607323      1.213670
  H      -4.059754     -0.757441      0.771104
  H      -3.448275     -1.183715     -0.824586
  H      -2.613186     -1.742900      0.628845
  C      -0.894857      0.421215     -1.751807
  C       0.429748      0.239511     -2.273518
  H      -1.704047      0.815037     -2.359069
  C       1.498270      0.182303     -1.380885
  C       2.706090     -0.106739     -2.083579
  S       0.883705     -0.035774     -3.886070
  C       2.521734     -0.243842     -3.425321
  H       1.578176      1.171138     -0.614491
  H       3.679734     -0.151740     -1.617775
  H       3.269260     -0.434537     -4.180301
  H      -0.691623     -3.232864     -0.250837
  H      -0.885571     -2.400480      2.333062
  H       1.536351     -1.509037      3.077577
  O       1.594331      2.350928      0.165277
  O       0.548233      0.989271      1.581663
  C       1.050227      2.119354      1.254115
  C       0.982433      3.195248      2.299115
  H       0.968347      4.180182      1.839839
  H       1.875079      3.135239      2.924463
  H       0.117842      3.070438      2.946410
  H       3.245866     -1.874986      1.047897
  H       1.840974     -2.911247     -1.036061
39
Coordinates from ORCA-job reaction4-IEIP_ts_guess_scan_9-6_orca E -1288.401102107043
  Ir      0.616715     -0.717894      0.440206
  C       0.116539     -2.828298      0.345588
  C      -0.013733     -2.364341      1.701868
  C       2.187077     -2.085057      1.050840
  C       1.456413     -2.652528     -0.054895
  C       1.277680     -1.938626      2.124727
  N      -1.054504      0.130666     -0.512950
  C      -2.326076      0.369623      0.187714
  C      -3.117112      1.547202     -0.363504
  H      -3.944224      1.762418      0.311417
  H      -3.558588      1.341543     -1.339599
  H      -2.510138      2.449991     -0.434706
  C      -3.154701     -0.910304      0.183159
  H      -2.041879      0.599984      1.215435
  H      -4.061599     -0.765848      0.768802
  H      -3.452333     -1.182890     -0.830219
  H      -2.614344     -1.749354      0.618529
  C      -0.898858      0.422489     -1.750779
  C       0.425009      0.242025     -2.274264
  H      -1.708865      0.816408     -2.356948
  C       1.494578      0.180467     -1.383353
  C       2.700940     -0.108668     -2.088808
  S       0.876154     -0.029159     -3.888301
  C       2.514500     -0.240992     -3.430749
  H       1.585535      1.166717     -0.613655
  H       3.675179     -0.156140     -1.624481
  H       3.260739     -0.430313     -4.187345
  H      -0.675018     -3.237634     -0.265247
  H      -0.899499     -2.407813      2.317378
  H       1.508793     -1.504336      3.087203
  O       1.618927      2.343853      0.169569
  O       0.546180      0.993757      1.577101
  C       1.062224      2.118336      1.253463
  C       0.996122      3.196689      2.296129
  H       0.980371      4.180351      1.834054
  H       1.890808      3.139511      2.918809
  H       0.133270      3.073336      2.945904
  H       3.242722     -1.862621      1.075755
  H       1.864368     -2.903362     -1.023109
39
Coordinates from ORCA-job reaction4-IEIP_ts_guess_scan_9-6_orca E -1288.401102297458
  Ir      0.615303     -0.717787      0.439567
  C       0.121392     -2.829067      0.341678
  C      -0.017958     -2.366519      1.697718
  C       2.185696     -2.080027      1.059557
  C       1.463347     -2.649765     -0.050180
  C       1.269152     -1.936821      2.128141
  N      -1.056814      0.129914     -0.513036
  C      -2.328369      0.367471      0.188110
  C      -3.119482      1.545953     -0.360977
  H      -3.946884      1.759556      0.314107
  H      -3.560573      1.342291     -1.337662
  H      -2.512648      2.448995     -0.430032
  C      -3.156657     -0.912688      0.181055
  H      -2.044244      0.596028      1.216249
  H      -4.062562     -0.770331      0.768741
  H      -3.455899     -1.182271     -0.832645
  H      -2.615167     -1.752910      0.612742
  C      -0.901516      0.423136     -1.750448
  C       0.422383      0.243029     -2.274459
  H      -1.711672      0.817349     -2.356221
  C       1.492562      0.180986     -1.384079
  C       2.698348     -0.108810     -2.090656
  S       0.872401     -0.027659     -3.888667
  C       2.511078     -0.240654     -3.432439
  H       1.589187      1.166477     -0.614557
  H       3.672787     -0.156946     -1.626792
  H       3.256558     -0.430114     -4.189746
  H      -0.665337     -3.240585     -0.273882
  H      -0.907293     -2.412327      2.307874
  H       1.493017     -1.501798      3.092000
  O       1.632091      2.341562      0.171278
  O       0.545012      0.996639      1.572763
  C       1.068877      2.118364      1.252392
  C       1.004256      3.197056      2.294807
  H       0.985248      4.180296      1.831855
  H       1.901505      3.142315      2.914001
  H       0.143898      3.072885      2.947644
  H       3.240693     -1.855420      1.091172
  H       1.877653     -2.898614     -1.016232
39
Coordinates from ORCA-job reaction4-IEIP_ts_guess_scan_9-6_orca E -1288.401102219554
  Ir      0.615060     -0.718474      0.439002
  C       0.122437     -2.829472      0.340371
  C      -0.019139     -2.367470      1.696424
  C       2.185263     -2.079428      1.061626
  C       1.465016     -2.649535     -0.049221
  C       1.266921     -1.936927      2.128822
  N      -1.057244      0.129565     -0.513188
  C      -2.328557      0.366957      0.188525
  C      -3.119500      1.545947     -0.359711
  H      -3.946845      1.759208      0.315557
  H      -3.560630      1.343164     -1.336556
  H      -2.512461      2.448904     -0.428057
  C      -3.157000     -0.913080      0.180868
  H      -2.044094      0.594962      1.216681
  H      -4.062332     -0.771168      0.769545
  H      -3.457187     -1.181645     -0.832813
  H      -2.615215     -1.753822      0.611162
  C      -0.902048      0.423729     -1.750292
  C       0.422087      0.243260     -2.274160
  H      -1.711936      0.818616     -2.355946
  C       1.492536      0.181895     -1.383752
  C       2.698134     -0.108514     -2.090604
  S       0.871846     -0.028095     -3.888108
  C       2.510691     -0.241287     -3.432190
  H       1.589887      1.167838     -0.615981
  H       3.672578     -0.156822     -1.626759
  H       3.255744     -0.431321     -4.189771
  H      -0.663009     -3.241459     -0.276505
  H      -0.909665     -2.412973      2.304870
  H       1.489054     -1.501710      3.092992
  O       1.634220      2.342278      0.170740
  O       0.544846      0.997275      1.570326
  C       1.069921      2.118824      1.251231
  C       1.005177      3.197002      2.294111
  H       0.982206      4.180177      1.831136
  H       1.904510      3.144858      2.910491
  H       0.147033      3.070552      2.949375
  H       3.240161     -1.854639      1.095205
  H       1.880903     -2.897980     -1.014705
39
Coordinates from ORCA-job reaction4-IEIP_ts_guess_scan_9-6_orca E -1288.401101640352
  Ir      0.615521     -0.719181      0.438785
  C       0.122537     -2.829715      0.339869
  C      -0.019771     -2.367752      1.695913
  C       2.185183     -2.080273      1.062580
  C       1.465504     -2.650136     -0.048783
  C       1.266169     -1.937554      2.129219
  N      -1.056812      0.129598     -0.512989
  C      -2.327976      0.366735      0.189158
  C      -3.118719      1.546333     -0.358117
  H      -3.946008      1.759215      0.317339
  H      -3.559867      1.344492     -1.335147
  H      -2.511471      2.449211     -0.425697
  C      -3.156686     -0.913096      0.180475
  H      -2.043327      0.594014      1.217411
  H      -4.061885     -0.771494      0.769436
  H      -3.457118     -1.180706     -0.833383
  H      -2.615086     -1.754411      0.609869
  C      -0.901720      0.424765     -1.749834
  C       0.422449      0.243859     -2.273721
  H      -1.711357      0.820551     -2.355208
  C       1.493129      0.182057     -1.383476
  C       2.698349     -0.108945     -2.090766
  S       0.871692     -0.027498     -3.887716
  C       2.510557     -0.241734     -3.432272
  H       1.590309      1.168367     -0.616769
  H       3.672861     -0.157986     -1.627132
  H       3.255126     -0.432181     -4.190220
  H      -0.662436     -3.241761     -0.277569
  H      -0.910948     -2.412270      2.303493
  H       1.487889     -1.502389      3.093505
  O       1.634112      2.342825      0.169953
  O       0.545179      0.997192      1.569238
  C       1.069667      2.119165      1.250264
  C       1.003658      3.197339      2.293015
  H       0.976288      4.180216      1.829584
  H       1.904793      3.148669      2.907030
  H       0.147523      3.068329      2.950363
  H       3.240148     -1.855948      1.097045
  H       1.881914     -2.898716     -1.014008
