39
Generated by autodE on: 2023-08-14. E = -1288.398684 Ha
Ir    0.62214  -0.72191   0.40412
C     0.15307  -2.84297   0.32450
C    -0.05107  -2.39268   1.67684
C     2.17203  -2.06022   1.13044
C     1.51357  -2.65314  -0.00160
C     1.19791  -1.93299   2.15811
N    -1.06858   0.12759  -0.51492
C    -2.33439   0.33715   0.20276
C    -3.13312   1.53210  -0.29765
H    -3.95898   1.71492   0.38801
H    -3.57607   1.36435  -1.28034
H    -2.53045   2.43991  -0.33340
C    -3.15869  -0.94491   0.15241
H    -2.04430   0.52919   1.23679
H    -4.05901  -0.83036   0.75466
H    -3.46700  -1.17394  -0.86848
H    -2.60970  -1.80044   0.54225
C    -0.92069   0.47235  -1.74098
C     0.39765   0.28475  -2.26773
H    -1.72709   0.90457  -2.32430
C     1.43101   0.06799  -1.34859
C     2.64807  -0.19475  -2.05832
S     0.88979   0.18866  -3.88438
C     2.50121  -0.15718  -3.40978
H     1.61011   1.11966  -0.66258
H     3.60448  -0.34191  -1.57760
H     3.26301  -0.29130  -4.16264
H    -0.59444  -3.27841  -0.32245
H    -0.96807  -2.44508   2.24353
H     1.36888  -1.48783   3.12813
O     1.70589   2.33136   0.11489
O     0.56831   1.02100   1.50931
C     1.11731   2.12706   1.18863
C     1.05382   3.22534   2.21097
H     0.96945   4.19499   1.72615
H     1.98337   3.22843   2.78282
H     0.23120   3.08104   2.90606
H     3.22327  -1.83383   1.21906
H     1.97551  -2.90937  -0.94392
