39
Generated by autodE on: 2023-08-14. E = -1288.400047 Ha
Ir    0.60707  -0.71427   0.44379
C     0.05942  -2.80601   0.35926
C     0.09007  -2.34544   1.72299
C     2.20806  -2.11865   0.83789
C     1.34472  -2.64827  -0.19280
C     1.44064  -1.96524   2.00906
N    -1.04566   0.15429  -0.52454
C    -2.31531   0.45157   0.15711
C    -3.11378   1.56497  -0.50252
H    -3.93980   1.84116   0.15145
H    -3.55817   1.26443  -1.45258
H    -2.51210   2.46019  -0.66168
C    -3.13448  -0.82708   0.28859
H    -2.02325   0.78162   1.15517
H    -4.04592  -0.62170   0.84808
H    -3.42368  -1.21469  -0.68910
H    -2.59347  -1.60577   0.82406
C    -0.86703   0.38485  -1.76932
C     0.47448   0.18062  -2.25733
H    -1.66140   0.75041  -2.41320
C     1.56027   0.36448  -1.40463
C     2.77109  -0.00478  -2.06070
S     0.92093  -0.40022  -3.79158
C     2.57666  -0.42985  -3.33772
H     1.52849   1.29246  -0.64130
H     3.75058   0.09555  -1.61618
H     3.32117  -0.73796  -4.05615
H    -0.80883  -3.18113  -0.16329
H    -0.72447  -2.37334   2.43131
H     1.79142  -1.55437   2.94497
O     1.38170   2.44094   0.21967
O     0.53434   0.94261   1.63531
C     0.94284   2.12339   1.32634
C     0.88608   3.12616   2.44390
H     0.86441   4.13957   2.05264
H     1.78329   3.02407   3.05752
H     0.02955   2.95717   3.09295
H     3.26019  -1.89922   0.73592
H     1.63925  -2.89335  -1.20262
