39
Coordinates from ORCA-job reaction4-IEIP_ts_guess_scan_4-11_orca E -1288.396701985206
  Ir      0.587864     -0.726041      0.482032
  C       0.047738     -2.811245      0.359995
  C       0.059367     -2.358861      1.728613
  C       2.190441     -2.128350      0.878408
  C       1.340529     -2.644591     -0.170753
  C       1.408891     -1.988342      2.040607
  N      -1.045687      0.144203     -0.507934
  C      -2.325543      0.434014      0.160856
  C      -3.113296      1.558123     -0.494266
  H      -3.944395      1.831226      0.154569
  H      -3.549817      1.269611     -1.451551
  H      -2.505940      2.451878     -0.639059
  C      -3.149885     -0.843802      0.264408
  H      -2.048596      0.751509      1.167381
  H      -4.068622     -0.644605      0.814215
  H      -3.426629     -1.217331     -0.722387
  H      -2.618158     -1.631722      0.795768
  C      -0.858627      0.367742     -1.750963
  C       0.482610      0.179089     -2.238910
  H      -1.656448      0.715639     -2.401144
  C       1.582001      0.408492     -1.421251
  C       2.782648      0.048208     -2.094961
  S       0.908177     -0.406368     -3.784774
  C       2.570201     -0.397067     -3.364091
  H       1.542128      1.330177     -0.594919
  H       3.770072      0.169653     -1.673710
  H       3.307442     -0.700784     -4.092053
  H      -0.812768     -3.182308     -0.177944
  H      -0.764830     -2.395416      2.425626
  H       1.746511     -1.589174      2.986413
  O       1.426150      2.393046      0.217561
  O       0.542363      0.945062      1.652399
  C       0.970893      2.108810      1.327945
  C       0.925064      3.140505      2.417416
  H       0.879486      4.142482      1.999308
  H       1.839854      3.069690      3.009234
  H       0.087380      2.976465      3.091335
  H       3.242230     -1.901482      0.788895
  H       1.648571     -2.868943     -1.181575
39
Coordinates from ORCA-job reaction4-IEIP_ts_guess_scan_4-11_orca E -1288.396845455030
  Ir      0.590525     -0.727823      0.482985
  C       0.045539     -2.813487      0.366373
  C       0.056049     -2.359603      1.734187
  C       2.188646     -2.133580      0.886381
  C       1.339356     -2.650656     -0.162741
  C       1.405296     -1.989718      2.046955
  N      -1.045499      0.143552     -0.509789
  C      -2.324566      0.432639      0.159347
  C      -3.113311      1.554569     -0.498178
  H      -3.945488      1.827352      0.149396
  H      -3.548227      1.263920     -1.455582
  H      -2.507216      2.449072     -0.643696
  C      -3.146721     -0.846344      0.264806
  H      -2.047376      0.751842      1.165269
  H      -4.065367     -0.647953      0.815026
  H      -3.423534     -1.221388     -0.721389
  H      -2.613263     -1.632780      0.796692
  C      -0.860447      0.370093     -1.755087
  C       0.481350      0.187736     -2.248366
  H      -1.659790      0.721271     -2.401635
  C       1.578843      0.404201     -1.424817
  C       2.779948      0.046370     -2.099901
  S       0.907791     -0.386685     -3.797836
  C       2.569124     -0.385917     -3.373681
  H       1.541370      1.333450     -0.595358
  H       3.766885      0.161720     -1.675758
  H       3.307048     -0.684274     -4.103065
  H      -0.814788     -3.184206     -0.172108
  H      -0.768961     -2.394190      2.430227
  H       1.742178     -1.589322      2.992486
  O       1.430265      2.397115      0.216760
  O       0.542450      0.946558      1.654032
  C       0.973814      2.110418      1.329309
  C       0.928924      3.141742      2.418948
  H       0.884266      4.143973      2.001243
  H       1.843587      3.069762      3.010779
  H       0.091005      2.978078      3.092582
  H       3.241160     -1.909737      0.798346
  H       1.648507     -2.878581     -1.172401
39
Coordinates from ORCA-job reaction4-IEIP_ts_guess_scan_4-11_orca E -1288.396918329651
  Ir      0.589313     -0.728555      0.485084
  C       0.039856     -2.814103      0.376584
  C       0.047165     -2.357449      1.742823
  C       2.182332     -2.136057      0.899498
  C       1.335395     -2.655508     -0.149827
  C       1.395187     -1.987020      2.057235
  N      -1.042784      0.140032     -0.510370
  C      -2.322314      0.427401      0.158335
  C      -3.113213      1.548247     -0.498554
  H      -3.946151      1.818994      0.148930
  H      -3.547347      1.257403     -1.456226
  H      -2.508939      2.444109     -0.643292
  C      -3.142965     -0.852573      0.264162
  H      -2.045371      0.746765      1.164307
  H      -4.061646     -0.655370      0.814822
  H      -3.419674     -1.227883     -0.721940
  H      -2.608248     -1.638228      0.795770
  C      -0.858117      0.371976     -1.756103
  C       0.482997      0.194521     -2.256339
  H      -1.658693      0.727362     -2.398442
  C       1.580555      0.391993     -1.427968
  C       2.780947      0.043989     -2.110093
  S       0.907789     -0.349328     -3.816506
  C       2.569103     -0.363748     -3.391674
  H       1.547284      1.329706     -0.595188
  H       3.768223      0.148953     -1.683963
  H       3.306199     -0.650004     -4.126667
  H      -0.819524     -3.185110     -0.163165
  H      -0.779642     -2.389101      2.436750
  H       1.729873     -1.583751      3.002323
  O       1.442378      2.394886      0.215770
  O       0.537791      0.948129      1.652121
  C       0.978009      2.108607      1.327962
  C       0.934580      3.141619      2.415314
  H       0.897359      4.143564      1.996167
  H       1.846300      3.065101      3.011111
  H       0.092773      2.983243      3.085252
  H       3.235705     -1.915306      0.814338
  H       1.646881     -2.888320     -1.157604
39
Coordinates from ORCA-job reaction4-IEIP_ts_guess_scan_4-11_orca E -1288.396946012545
  Ir      0.590141     -0.731901      0.488965
  C       0.037198     -2.817032      0.388490
  C       0.041500     -2.356364      1.752997
  C       2.179408     -2.140876      0.913992
  C       1.334470     -2.662761     -0.135543
  C       1.388847     -1.986046      2.068885
  N      -1.041252      0.136626     -0.511986
  C      -2.322272      0.421357      0.155945
  C      -3.113362      1.544307     -0.497121
  H      -3.947006      1.811845      0.150771
  H      -3.546683      1.257089     -1.456244
  H      -2.509680      2.441239     -0.637704
  C      -3.143887     -0.858531      0.256618
  H      -2.046894      0.737400      1.163413
  H      -4.063401     -0.662422      0.806291
  H      -3.419129     -1.230705     -0.731080
  H      -2.610719     -1.646019      0.786795
  C      -0.857073      0.374955     -1.756594
  C       0.481983      0.201189     -2.261473
  H      -1.659107      0.732590     -2.395771
  C       1.579786      0.380936     -1.429409
  C       2.779441      0.042647     -2.117278
  S       0.905110     -0.316929     -3.830199
  C       2.566851     -0.337528     -3.407289
  H       1.551328      1.323091     -0.595368
  H       3.766882      0.136931     -1.689063
  H       3.303383     -0.610201     -4.147966
  H      -0.821301     -3.188560     -0.152295
  H      -0.787096     -2.384338      2.444913
  H       1.721692     -1.579591      3.013283
  O       1.451716      2.390227      0.213684
  O       0.537883      0.949968      1.651025
  C       0.983284      2.106863      1.325614
  C       0.942768      3.143569      2.409259
  H       0.910155      4.144405      1.987165
  H       1.853382      3.065081      3.006515
  H       0.099364      2.990384      3.078420
  H       3.233602     -1.923131      0.831535
  H       1.648061     -2.900572     -1.141453
39
Coordinates from ORCA-job reaction4-IEIP_ts_guess_scan_4-11_orca E -1288.396951366440
  Ir      0.589663     -0.734485      0.492330
  C       0.035629     -2.819030      0.397545
  C       0.035725     -2.354828      1.760625
  C       2.176754     -2.143201      0.927471
  C       1.334864     -2.667493     -0.123205
  C       1.382079     -1.983915      2.079125
  N      -1.039573      0.133263     -0.512923
  C      -2.321922      0.414373      0.154965
  C      -3.113123      1.540814     -0.492056
  H      -3.946917      1.804272      0.157279
  H      -3.546408      1.258989     -1.452789
  H      -2.509850      2.438836     -0.627407
  C      -3.144379     -0.865612      0.247954
  H      -2.048117      0.725271      1.164483
  H      -4.064871     -0.671542      0.796687
  H      -3.417877     -1.232924     -0.742052
  H      -2.612919     -1.656021      0.775446
  C      -0.855879      0.378475     -1.755894
  C       0.480879      0.208708     -2.264728
  H      -1.659454      0.738201     -2.392064
  C       1.579697      0.370475     -1.430391
  C       2.778148      0.040197     -2.123371
  S       0.902866     -0.274533     -3.844373
  C       2.563485     -0.318262     -3.419509
  H       1.557034      1.314412     -0.595084
  H       3.765823      0.119865     -1.692817
  H       3.298597     -0.583883     -4.164139
  H      -0.821291     -3.191450     -0.145135
  H      -0.795153     -2.379849      2.449900
  H       1.712259     -1.574449      3.023183
  O       1.462206      2.383828      0.211527
  O       0.537109      0.952349      1.648746
  C       0.988298      2.105275      1.322287
  C       0.949379      3.146845      2.401556
  H       0.921815      4.146148      1.975604
  H       1.858189      3.066989      3.001384
  H       0.103708      2.999576      3.069255
  H       3.231586     -1.927312      0.848572
  H       1.651308     -2.909181     -1.127245
39
Coordinates from ORCA-job reaction4-IEIP_ts_guess_scan_4-11_orca E -1288.396965958473
  Ir      0.588500     -0.735473      0.493833
  C       0.035276     -2.819535      0.397714
  C       0.032545     -2.355110      1.760806
  C       2.175366     -2.143545      0.932038
  C       1.335644     -2.667810     -0.120413
  C       1.378328     -1.984147      2.082014
  N      -1.038235      0.132506     -0.511734
  C      -2.320519      0.413232      0.156615
  C      -3.110782      1.541924     -0.487790
  H      -3.943952      1.804764      0.162595
  H      -3.544884      1.262612     -1.448881
  H      -2.506703      2.439639     -0.621545
  C      -3.143980     -0.866306      0.246354
  H      -2.046817      0.721740      1.166889
  H      -4.064709     -0.672653      0.794844
  H      -3.417104     -1.231334     -0.744602
  H      -2.613569     -1.658401      0.772487
  C      -0.854754      0.377746     -1.754509
  C       0.481056      0.206909     -2.263751
  H      -1.658798      0.736603     -2.390682
  C       1.580998      0.365066     -1.430153
  C       2.779039      0.040143     -2.125902
  S       0.901529     -0.274722     -3.844443
  C       2.563161     -0.310627     -3.424151
  H       1.559746      1.308127     -0.594776
  H       3.767219      0.119947     -1.696615
  H       3.297803     -0.569521     -4.171626
  H      -0.820403     -3.192029     -0.146874
  H      -0.799830     -2.379801      2.448296
  H       1.706635     -1.574430      3.026619
  O       1.464518      2.378906      0.209978
  O       0.536349      0.951806      1.647980
  C       0.988592      2.103618      1.320224
  C       0.948280      3.148028      2.397095
  H       0.921149      4.146264      1.968658
  H       1.856368      3.069681      2.998197
  H       0.101864      3.002435      3.064243
  H       3.230365     -1.927614      0.855535
  H       1.654076     -2.909448     -1.123824
39
Coordinates from ORCA-job reaction4-IEIP_ts_guess_scan_4-11_orca E -1288.396970686056
  Ir      0.589000     -0.735538      0.493940
  C       0.037142     -2.819785      0.395436
  C       0.032755     -2.355922      1.758878
  C       2.176444     -2.143107      0.932792
  C       1.338028     -2.667003     -0.120966
  C       1.378196     -1.984828      2.081973
  N      -1.038341      0.133009     -0.511104
  C      -2.320372      0.413427      0.157820
  C      -3.109718      1.543607     -0.485188
  H      -3.942594      1.806368      0.165625
  H      -3.544080      1.265795     -1.446585
  H      -2.504839      2.440910     -0.617970
  C      -3.144458     -0.865855      0.245281
  H      -2.046653      0.720313      1.168547
  H      -4.065306     -0.672690      0.793779
  H      -3.417447     -1.229193     -0.746334
  H      -2.614603     -1.659097      0.770211
  C      -0.855474      0.377536     -1.754237
  C       0.480270      0.206689     -2.263276
  H      -1.659806      0.735663     -2.390423
  C       1.580451      0.365502     -1.430299
  C       2.778305      0.038835     -2.125248
  S       0.900806     -0.276532     -3.843747
  C       2.562141     -0.313427     -3.423178
  H       1.559875      1.307254     -0.594590
  H       3.766538      0.118573     -1.696098
  H       3.296701     -0.573626     -4.170290
  H      -0.817657     -3.192473     -0.150395
  H      -0.800387     -2.381339      2.445428
  H       1.705343     -1.575613      3.027195
  O       1.464154      2.378630      0.209311
  O       0.537255      0.951857      1.648240
  C       0.988328      2.104208      1.319610
  C       0.946664      3.149111      2.395997
  H       0.917703      4.147008      1.966868
  H       1.855133      3.072620      2.996745
  H       0.100780      3.002592      3.063590
  H       3.231418     -1.926575      0.857626
  H       1.657676     -2.907717     -1.124225
39
Coordinates from ORCA-job reaction4-IEIP_ts_guess_scan_4-11_orca E -1288.396976147910
  Ir      0.589907     -0.735995      0.494909
  C       0.040325     -2.820620      0.392202
  C       0.030089     -2.357322      1.756032
  C       2.177156     -2.142727      0.939232
  C       1.343281     -2.666355     -0.118310
  C       1.374101     -1.985877      2.085140
  N      -1.037467      0.133274     -0.509341
  C      -2.319174      0.412120      0.160815
  C      -3.106605      1.546494     -0.477405
  H      -3.938895      1.808066      0.174654
  H      -3.541462      1.273372     -1.439894
  H      -2.499995      2.443112     -0.606687
  C      -3.144700     -0.866675      0.241376
  H      -2.045611      0.713945      1.173041
  H      -4.065779     -0.675466      0.790223
  H      -3.417426     -1.224736     -0.752233
  H      -2.615980     -1.663272      0.762362
  C      -0.856237      0.377543     -1.753037
  C       0.478795      0.207315     -2.263326
  H      -1.661745      0.734656     -2.388272
  C       1.579983      0.362828     -1.431303
  C       2.776907      0.036091     -2.127243
  S       0.898182     -0.272568     -3.845610
  C       2.559083     -0.313798     -3.425809
  H       1.562432      1.302950     -0.594049
  H       3.765622      0.113664     -1.698873
  H       3.292893     -0.573623     -4.173804
  H      -0.811674     -3.193921     -0.157565
  H      -0.805868     -2.383731      2.439137
  H       1.697130     -1.577143      3.031989
  O       1.466968      2.376390      0.207124
  O       0.538844      0.952441      1.648076
  C       0.989278      2.104862      1.317228
  C       0.944086      3.152105      2.391149
  H       0.912092      4.148798      1.959390
  H       1.852753      3.079886      2.992087
  H       0.098571      3.004654      3.058953
  H       3.232324     -1.925563      0.868862
  H       1.667191     -2.905982     -1.120481
39
Coordinates from ORCA-job reaction4-IEIP_ts_guess_scan_4-11_orca E -1288.396979150415
  Ir      0.590962     -0.736406      0.495841
  C       0.043350     -2.821583      0.389908
  C       0.026661     -2.358506      1.753865
  C       2.177404     -2.142297      0.947104
  C       1.348573     -2.666178     -0.114233
  C       1.368865     -1.986430      2.089306
  N      -1.036519      0.132921     -0.507654
  C      -2.318073      0.410242      0.163451
  C      -3.103570      1.548864     -0.469781
  H      -3.935475      1.809054      0.183316
  H      -3.538663      1.280626     -1.433515
  H      -2.495239      2.444850     -0.595186
  C      -3.145243     -0.867914      0.237081
  H      -2.044699      0.706814      1.177241
  H      -4.066264     -0.678738      0.786749
  H      -3.418172     -1.220287     -0.758510
  H      -2.617463     -1.668049      0.753595
  C      -0.856801      0.377411     -1.751693
  C       0.477447      0.207818     -2.263829
  H      -1.663479      0.734060     -2.385699
  C       1.579708      0.359576     -1.432672
  C       2.775568      0.033656     -2.130524
  S       0.895059     -0.267503     -3.848230
  C       2.555927     -0.312054     -3.430045
  H       1.565246      1.298961     -0.593704
  H       3.764866      0.108931     -1.703116
  H       3.288850     -0.570400     -4.179427
  H      -0.805644     -3.195727     -0.163905
  H      -0.812327     -2.385800      2.433218
  H       1.687239     -1.577765      3.037771
  O       1.470847      2.374305      0.205039
  O       0.540365      0.953176      1.647517
  C       0.990793      2.105252      1.314803
  C       0.942556      3.154774      2.386239
  H       0.907937      4.150347      1.952053
  H       1.851447      3.086482      2.987278
  H       0.097368      3.006577      3.054247
  H       3.232808     -1.924746      0.881901
  H       1.677154     -2.905124     -1.115062
39
Coordinates from ORCA-job reaction4-IEIP_ts_guess_scan_4-11_orca E -1288.396982006129
  Ir      0.592752     -0.736969      0.496997
  C       0.048240     -2.823144      0.386552
  C       0.020880     -2.360272      1.750511
  C       2.177553     -2.141292      0.960148
  C       1.357152     -2.666085     -0.107154
  C       1.359823     -1.986785      2.096162
  N      -1.035245      0.131921     -0.505179
  C      -2.316668      0.406989      0.167177
  C      -3.099110      1.552236     -0.458095
  H      -3.930658      1.810014      0.196384
  H      -3.534266      1.291834     -1.423917
  H      -2.488164      2.447310     -0.577034
  C      -3.146486     -0.870041      0.230018
  H      -2.043589      0.695203      1.183416
  H      -4.066949     -0.684244      0.781774
  H      -3.420495     -1.212961     -0.768582
  H      -2.619755     -1.675905      0.738692
  C      -0.857665      0.377041     -1.749502
  C       0.475367      0.208118     -2.264692
  H      -1.665967      0.733464     -2.381598
  C       1.579287      0.354897     -1.434980
  C       2.773476      0.030746     -2.136355
  S       0.889652     -0.260991     -3.851979
  C       2.550933     -0.309102     -3.437006
  H       1.569191      1.293727     -0.593639
  H       3.763727      0.103211     -1.710690
  H       3.282378     -0.565038     -4.188654
  H      -0.795846     -3.198820     -0.173663
  H      -0.823007     -2.389027      2.423719
  H       1.670344     -1.577861      3.047138
  O       1.477225      2.371579      0.202000
  O       0.542899      0.954436      1.646255
  C       0.993629      2.105706      1.311178
  C       0.941379      3.158588      2.378979
  H       0.902555      4.152545      1.941389
  H       1.850993      3.096289      2.979559
  H       0.097092      3.009124      3.047787
  H       3.233304     -1.923221      0.903320
  H       1.693411     -2.904030     -1.105695
39
Coordinates from ORCA-job reaction4-IEIP_ts_guess_scan_4-11_orca E -1288.396983646284
  Ir      0.594464     -0.737434      0.497786
  C       0.053737     -2.824707      0.382920
  C       0.014989     -2.362103      1.746766
  C       2.177700     -2.139439      0.973576
  C       1.366446     -2.665724     -0.099825
  C       1.350163     -1.986452      2.102984
  N      -1.034492      0.130488     -0.503023
  C      -2.315780      0.403590      0.170489
  C      -3.095113      1.555296     -0.446901
  H      -3.926532      1.810485      0.208732
  H      -3.530069      1.302785     -1.414881
  H      -2.481690      2.449531     -0.559134
  C      -3.148302     -0.872170      0.222884
  H      -2.042937      0.683582      1.189063
  H      -4.067654     -0.689860      0.777634
  H      -3.424298     -1.205224     -0.778512
  H      -2.622180     -1.683878      0.722897
  C      -0.858815      0.376383     -1.747422
  C       0.473102      0.207829     -2.265550
  H      -1.668417      0.733062     -2.377776
  C       1.578571      0.351000     -1.437363
  C       2.771187      0.028375     -2.142187
  S       0.883862     -0.256404     -3.855090
  C       2.545942     -0.306654     -3.443586
  H       1.572133      1.289655     -0.594320
  H       3.762311      0.098692     -1.718192
  H       3.275908     -0.560508     -4.197366
  H      -0.785128     -3.202210     -0.183847
  H      -0.833963     -2.392612      2.413500
  H       1.652159     -1.576883      3.056452
  O       1.483522      2.369322      0.199238
  O       0.545284      0.955741      1.644566
  C       0.996733      2.105981      1.307812
  C       0.941756      3.161897      2.372452
  H       0.898574      4.154402      1.931935
  H       1.852672      3.105267      2.971622
  H       0.099009      3.011170      3.042876
  H       3.233700     -1.920657      0.925456
  H       1.710816     -2.902422     -1.095922
39
Coordinates from ORCA-job reaction4-IEIP_ts_guess_scan_4-11_orca E -1288.396984376074
  Ir      0.595911     -0.737813      0.498235
  C       0.060222     -2.826280      0.378407
  C       0.008889     -2.364230      1.742120
  C       2.177908     -2.136436      0.987597
  C       1.376949     -2.664762     -0.092375
  C       1.339650     -1.985469      2.109724
  N      -1.034417      0.128802     -0.501208
  C      -2.315514      0.400102      0.173508
  C      -3.091739      1.558116     -0.436009
  H      -3.923257      1.810395      0.220612
  H      -3.526228      1.313665     -1.406243
  H      -2.476066      2.451650     -0.541196
  C      -3.150688     -0.874322      0.215642
  H      -2.042863      0.672022      1.194296
  H      -4.068382     -0.695758      0.774327
  H      -3.429567     -1.196989     -0.788352
  H      -2.624722     -1.692031      0.706035
  C      -0.860485      0.375481     -1.745561
  C       0.470446      0.206954     -2.266335
  H      -1.671057      0.732697     -2.374446
  C       1.577354      0.347982     -1.439748
  C       2.768541      0.026532     -2.147728
  S       0.877678     -0.254227     -3.857389
  C       2.540825     -0.305472     -3.449372
  H       1.573785      1.286768     -0.595969
  H       3.760426      0.095554     -1.725287
  H       3.269302     -0.557863     -4.205061
  H      -0.772845     -3.205946     -0.195407
  H      -0.845510     -2.396950      2.401762
  H       1.632129     -1.574940      3.065775
  O       1.489623      2.367489      0.196636
  O       0.547431      0.957225      1.642502
  C       1.000207      2.106242      1.304691
  C       0.944109      3.164823      2.366719
  H       0.896039      4.155993      1.923671
  H       1.857182      3.113661      2.963099
  H       0.103887      3.012786      3.039978
  H       3.234032     -1.916571      0.948905
  H       1.730184     -2.899689     -1.085813
39
Coordinates from ORCA-job reaction4-IEIP_ts_guess_scan_4-11_orca E -1288.396984597411
  Ir      0.596587     -0.737959      0.498361
  C       0.066307     -2.827462      0.373839
  C       0.003942     -2.366249      1.737499
  C       2.178134     -2.132839      0.999093
  C       1.386368     -2.663152     -0.086571
  C       1.330676     -1.984146      2.114883
  N      -1.035021      0.127449     -0.500167
  C      -2.315869      0.397458      0.175614
  C      -3.089853      1.560023     -0.428071
  H      -3.921609      1.809818      0.229207
  H      -3.523799      1.321720     -1.400059
  H      -2.472745      2.453187     -0.527739
  C      -3.152914     -0.875970      0.210258
  H      -2.043297      0.663603      1.197923
  H      -4.068968     -0.700440      0.772578
  H      -3.434606     -1.190545     -0.795512
  H      -2.626740     -1.698270      0.692759
  C      -0.862430      0.374560     -1.744497
  C       0.467878      0.205912     -2.266984
  H      -1.673538      0.732218     -2.372496
  C       1.575772      0.346313     -1.441616
  C       2.766027      0.025229     -2.151482
  S       0.872716     -0.254192     -3.858684
  C       2.536717     -0.305706     -3.453042
  H       1.573759      1.285442     -0.598207
  H       3.758353      0.093722     -1.729979
  H       3.264077     -0.557560     -4.209970
  H      -0.761591     -3.209146     -0.206071
  H      -0.855124     -2.401162      2.390946
  H       1.614803     -1.572707      3.073087
  O       1.494089      2.366308      0.194665
  O       0.548603      0.958568      1.640612
  C       1.003218      2.106489      1.302462
  C       0.947990      3.166632      2.363104
  H       0.895501      4.156893      1.918494
  H       1.863651      3.119427      2.955836
  H       0.110797      3.013494      3.039846
  H       3.234223     -1.911659      0.968552
  H       1.747285     -2.896112     -1.077734
39
Coordinates from ORCA-job reaction4-IEIP_ts_guess_scan_4-11_orca E -1288.396984645979
  Ir      0.596563     -0.737914      0.498337
  C       0.071165     -2.828268      0.369878
  C       0.000348     -2.367961      1.733562
  C       2.178256     -2.129468      1.007398
  C       1.393633     -2.661336     -0.082625
  C       1.323929     -1.982958      2.118370
  N      -1.035900      0.126650     -0.499771
  C      -2.316497      0.395819      0.176845
  C      -3.089259      1.561040     -0.423297
  H      -3.921247      1.809059      0.234377
  H      -3.522763      1.326596     -1.396408
  H      -2.471477      2.454118     -0.519417
  C      -3.154553     -0.877050      0.207027
  H      -2.043908      0.658687      1.199972
  H      -4.069413     -0.703541      0.771918
  H      -3.438289     -1.186553     -0.799734
  H      -2.628087     -1.702207      0.684345
  C      -0.864273      0.373772     -1.744180
  C       0.465719      0.205023     -2.267519
  H      -1.675681      0.731497     -2.371770
  C       1.574172      0.345544     -1.442889
  C       2.763981      0.024503     -2.153544
  S       0.869433     -0.255118     -3.859374
  C       2.533863     -0.306611     -3.454902
  H       1.572679      1.285121     -0.600433
  H       3.756492      0.093036     -1.732483
  H       3.260530     -0.558464     -4.212490
  H      -0.752666     -3.211597     -0.214711
  H      -0.862255     -2.404679      2.382240
  H       1.601698     -1.570903      3.078190
  O       1.496735      2.365672      0.193235
  O       0.548908      0.959696      1.639207
  C       1.005510      2.106799      1.301064
  C       0.952372      3.167451      2.361365
  H       0.896121      4.157223      1.916086
  H       1.870662      3.122745      2.950208
  H       0.118268      3.013310      3.041644
  H       3.234217     -1.907000      0.983091
  H       1.760380     -2.892542     -1.072077
39
Coordinates from ORCA-job reaction4-IEIP_ts_guess_scan_4-11_orca E -1288.396985062991
  Ir      0.596168     -0.737749      0.498325
  C       0.073965     -2.828706      0.367476
  C      -0.001661     -2.369014      1.731195
  C       2.178226     -2.127217      1.011972
  C       1.397709     -2.659948     -0.080537
  C       1.320105     -1.982223      2.120229
  N      -1.036585      0.126389     -0.499798
  C      -2.317016      0.395166      0.177272
  C      -3.089463      1.561293     -0.421565
  H      -3.921563      1.808496      0.236288
  H      -3.522760      1.328336     -1.395120
  H      -2.471549      2.454424     -0.516278
  C      -3.155339     -0.877544      0.205871
  H      -2.044358      0.657023      1.200623
  H      -4.069730     -0.704860      0.771784
  H      -3.439896     -1.185190     -0.801225
  H      -2.628732     -1.703771      0.681189
  C      -0.865527      0.373248     -1.744363
  C       0.464350      0.204558     -2.267970
  H      -1.677158      0.730690     -2.371816
  C       1.572995      0.345184     -1.443588
  C       2.762730      0.024180     -2.154290
  S       0.867984     -0.255544     -3.859905
  C       2.532411     -0.307078     -3.455617
  H       1.571425      1.285112     -0.601901
  H       3.755261      0.092799     -1.733300
  H       3.258818     -0.558959     -4.213448
  H      -0.747455     -3.213081     -0.219806
  H      -0.866279     -2.406773      2.377126
  H       1.594302     -1.569931      3.080980
  O       1.497675      2.365382      0.192355
  O       0.548654      0.960389      1.638482
  C       1.006802      2.107033      1.300400
  C       0.955825      3.167470      2.361003
  H       0.896929      4.157122      1.915752
  H       1.876164      3.123964      2.946721
  H       0.124129      3.012452      3.043986
  H       3.234060     -1.903822      0.991255
  H       1.767752     -2.890108     -1.069016
39
Coordinates from ORCA-job reaction4-IEIP_ts_guess_scan_4-11_orca E -1288.396985454442
  Ir      0.595764     -0.737613      0.498371
  C       0.075209     -2.828993      0.366434
  C      -0.002726     -2.369532      1.730138
  C       2.178070     -2.126074      1.014288
  C       1.399528     -2.659212     -0.079403
  C       1.318160     -1.981878      2.121238
  N      -1.036947      0.126349     -0.499917
  C      -2.317322      0.394949      0.177303
  C      -3.089818      1.561218     -0.421260
  H      -3.921923      1.808191      0.236675
  H      -3.523074      1.328582     -1.394906
  H      -2.471916      2.454388     -0.515666
  C      -3.155612     -0.877769      0.205580
  H      -2.044628      0.656723      1.200658
  H      -4.070037     -0.705266      0.771500
  H      -3.440141     -1.185168     -0.801600
  H      -2.629055     -1.704168      0.680652
  C      -0.866190      0.372931     -1.744632
  C       0.463622      0.204391     -2.268323
  H      -1.678046      0.729966     -2.372004
  C       1.572304      0.344850     -1.443948
  C       2.762107      0.024171     -2.154559
  S       0.867545     -0.255216     -3.860447
  C       2.531790     -0.306829     -3.456005
  H       1.570483      1.284968     -0.602581
  H       3.754629      0.092812     -1.733564
  H       3.258170     -0.558490     -4.213943
  H      -0.744979     -3.213977     -0.222162
  H      -0.868335     -2.407712      2.374716
  H       1.590666     -1.569544      3.082453
  O       1.497705      2.365259      0.191736
  O       0.548374      0.960781      1.638208
  C       1.007447      2.107200      1.300070
  C       0.958119      3.167246      2.361084
  H       0.897252      4.156928      1.916123
  H       1.879980      3.124465      2.944451
  H       0.128212      3.011378      3.046011
  H       3.233819     -1.902137      0.995352
  H       1.771165     -2.888980     -1.067382
