! Opt PBEh-3c
%geom Constraints
{ B 0 20 2.0 C }
{ B 24 30 1.5 C }
    end
end
%output 
xyzfile=True 
end 
%scf 
maxiter 250 
end
%output
Print[P_Hirshfeld] = 1
end
% maxcore
4000
*xyz 1 1
Ir   0.62941679  -0.71514447   0.38455188 
C    0.16053631  -2.84175882   0.31677980 
C   -0.02639982  -2.39335937   1.67179686 
C    2.18756628  -2.05349053   1.09502440 
C    1.51609299  -2.65007872  -0.02769582 
C    1.22657012  -1.92904004   2.13573180 
N   -1.06858262   0.13518357  -0.52179500 
C   -2.32776062   0.35520611   0.20320402 
C   -3.13108100   1.54227855  -0.30797876 
H   -3.95199953   1.73389953   0.38123363 
H   -3.58139390   1.35959352  -1.28466741 
H   -2.52994075   2.45024908  -0.36104059 
C   -3.15150486  -0.92820716   0.17775644 
H   -2.02784246   0.56074782   1.23180788 
H   -4.04690205  -0.80453291   0.78543920 
H   -3.46797120  -1.17218044  -0.83712760 
H   -2.59886008  -1.77730048   0.57624337 
C   -0.92420942   0.47317466  -1.75009750 
C    0.39451459   0.27133852  -2.27093884 
H   -1.72741508   0.90900392  -2.33477277 
C    1.41893919   0.05704183  -1.33406621 
C    2.64291086  -0.21490569  -2.03669988 
S    0.89899022   0.15559052  -3.87889670 
C    2.50750566  -0.19134596  -3.38794975 
H    1.59031108   1.10941708  -0.70088169 
H    3.59542045  -0.35636491  -1.54651366 
H    3.27448277  -0.33387634  -4.13393412 
H   -0.59480524  -3.27922692  -0.31962339 
H   -0.93634006  -2.44611371   2.24967446 
H    1.40939759  -1.48233199   3.10285110 
O    1.65995929   2.37176331   0.10635503 
O    0.57282888   1.01677601   1.50066331 
C    1.09579865   2.14059395   1.18311538 
C    1.02330632   3.21556926   2.23116383 
H    1.00759789   4.20060255   1.77185731 
H    1.91585540   3.15798696   2.85662959 
H    0.15781512   3.08919029   2.87670571 
H    3.23970191  -1.82663215   1.17121764 
H    1.96686043  -2.91012644  -0.97438284 
*
