39
Generated by autodE on: 2023-08-14. E = -1288.400718 Ha
Ir    0.61852  -0.71727   0.44096
C     0.09322  -2.82002   0.35247
C     0.03713  -2.35673   1.71351
C     2.20390  -2.10441   0.95376
C     1.41012  -2.65416  -0.11943
C     1.35814  -1.95235   2.07385
N    -1.04561   0.13761  -0.51846
C    -2.31359   0.40618   0.17842
C    -3.09822   1.56946  -0.40972
H    -3.92213   1.81314   0.25957
H    -3.54370   1.33439  -1.37731
H    -2.48512   2.46511  -0.51207
C    -3.14796  -0.86897   0.22286
H    -2.02258   0.66855   1.19646
H    -4.05355  -0.69637   0.80272
H    -3.44768  -1.17996  -0.77876
H    -2.61142  -1.69195   0.69250
C    -0.88486   0.39554  -1.76224
C     0.44644   0.20446  -2.27203
H    -1.69038   0.77404  -2.38413
C     1.52166   0.25212  -1.38642
C     2.73294  -0.06765  -2.06908
S     0.89918  -0.20292  -3.85687
C     2.54580  -0.33005  -3.39093
H     1.53977   1.22092  -0.63038
H     3.70900  -0.04739  -1.60658
H     3.29330  -0.56936  -4.13200
H    -0.73532  -3.21309  -0.21893
H    -0.81777  -2.39062   2.37198
H     1.64513  -1.52808   3.02558
O     1.46847   2.40036   0.17252
O     0.54568   0.96768   1.60588
C     0.98958   2.12543   1.27840
C     0.92915   3.16840   2.35742
H     0.90497   4.16721   1.93014
H     1.82771   3.09162   2.97262
H     0.07284   3.01922   3.01110
H     3.26045  -1.88635   0.92130
H     1.76616  -2.90454  -1.10794
