! Opt PBEh-3c
%geom Constraints
{ B 0 20 2.1714285714285713 C }
{ B 24 30 1.3571428571428572 C }
    end
end
%output 
xyzfile=True 
end 
%scf 
maxiter 250 
end
%output
Print[P_Hirshfeld] = 1
end
% maxcore
4000
*xyz 1 1
Ir   0.60843925  -0.72933678   0.44948612 
C    0.11810029  -2.83757970   0.35550994 
C   -0.06412993  -2.37165123   1.70578841 
C    2.15911754  -2.08457294   1.13549747 
C    1.47397790  -2.66154948   0.00819913 
C    1.20574498  -1.93669616   2.17341001 
N   -1.05986181   0.11991111  -0.50765075 
C   -2.33775847   0.33180452   0.19082281 
C   -3.12956548   1.52388411  -0.32786733 
H   -3.96252565   1.71356921   0.34737001 
H   -3.56232653   1.34953902  -1.31389187 
H   -2.52524663   2.43052955  -0.36445785 
C   -3.16211740  -0.94964338   0.13728694 
H   -2.06408691   0.53176180   1.22778153 
H   -4.07367359  -0.82918158   0.72126460 
H   -3.45153088  -1.18831535  -0.88695598 
H   -2.62202476  -1.80216548   0.54587473 
C   -0.90259154   0.44708059  -1.73698741 
C    0.41754195   0.28115901  -2.27034134 
H   -1.71433225   0.85569521  -2.33083227 
C    1.48484331   0.14160956  -1.38802025 
C    2.68523472  -0.12140291  -2.11130737 
S    0.86663377   0.12504995  -3.90153587 
C    2.49806445  -0.15062553  -3.46060742 
H    1.63302228   1.15120964  -0.59255447 
H    3.65792996  -0.22437212  -1.65265836 
H    3.24188383  -0.29974729  -4.22851135 
H   -0.64600426  -3.25664727  -0.28289445 
H   -0.97272076  -2.41369075   2.28707664 
H    1.39775450  -1.49563612   3.14142039 
O    1.72780510   2.29143680   0.16356362 
O    0.54784192   1.01396984   1.55150793 
C    1.11888406   2.10708425   1.23296114 
C    1.06180305   3.21782852   2.23969158 
H    0.94328795   4.17761999   1.74189145 
H    2.00814186   3.25162696   2.78218246 
H    0.26210575   3.06822390   2.95958490 
H    3.21303527  -1.86306901   1.20254477 
H    1.91867330  -2.91552052  -0.94290214 
*
