39
Coordinates from ORCA-job reaction4-IEIP_ts_guess_scan_0-13_orca E -1288.390390808627
  Ir      0.560462     -0.747062      0.530465
  C       0.005123     -2.821853      0.387579
  C       0.056702     -2.381902      1.760594
  C       2.164464     -2.163420      0.860842
  C       1.283204     -2.656389     -0.174307
  C       1.420420     -2.033046      2.045619
  N      -1.036425      0.142319     -0.497868
  C      -2.323206      0.457749      0.146328
  C      -3.116077      1.537800     -0.573077
  H      -3.953161      1.837331      0.056112
  H      -3.544809      1.195930     -1.516354
  H      -2.516734      2.428954     -0.761553
  C      -3.139889     -0.817364      0.317086
  H      -2.054408      0.833498      1.135158
  H      -4.067969     -0.590481      0.839706
  H      -3.399836     -1.253444     -0.648419
  H      -2.613254     -1.566654      0.906461
  C      -0.829106      0.347900     -1.743051
  C       0.516992      0.169186     -2.232206
  H      -1.623165      0.683682     -2.404519
  C       1.629244      0.514715     -1.475931
  C       2.822612      0.158860     -2.163229
  S       0.922639     -0.504675     -3.753269
  C       2.593782     -0.387751     -3.389473
  H       1.548356      1.401163     -0.610074
  H       3.815906      0.353344     -1.785229
  H       3.322968     -0.711573     -4.116865
  H      -0.873624     -3.176529     -0.131606
  H      -0.750171     -2.418758      2.477860
  H       1.787898     -1.653004      2.988002
  O       1.387705      2.387921      0.243066
  O       0.538775      0.920010      1.694420
  C       0.955476      2.089917      1.361324
  C       0.922514      3.114037      2.458208
  H       0.860208      4.117774      2.046415
  H       1.849733      3.048224      3.031055
  H       0.100242      2.939655      3.148292
  H       3.212676     -1.933092      0.740221
  H       1.563106     -2.863783     -1.197044
39
Coordinates from ORCA-job reaction4-IEIP_ts_guess_scan_0-13_orca E -1288.390416274216
  Ir      0.560365     -0.746897      0.530655
  C       0.004516     -2.821753      0.388930
  C       0.055968     -2.381143      1.761766
  C       2.163993     -2.163460      0.862077
  C       1.282802     -2.656810     -0.172967
  C       1.419709     -2.032339      2.046737
  N      -1.036470      0.142006     -0.498243
  C      -2.323792      0.456550      0.145343
  C      -3.116890      1.536230     -0.574361
  H      -3.954581      1.835143      0.054317
  H      -3.544767      1.194200     -1.517960
  H      -2.517993      2.427784     -0.762364
  C      -3.139920     -0.819008      0.315489
  H      -2.055836      0.832279      1.134418
  H      -4.068308     -0.592789      0.837862
  H      -3.399291     -1.254938     -0.650235
  H      -2.613058     -1.568183      0.904790
  C      -0.828770      0.347989     -1.743520
  C       0.517151      0.168918     -2.233345
  H      -1.622826      0.684227     -2.404797
  C       1.629668      0.512401     -1.477020
  C       2.822254      0.156207     -2.165740
  S       0.921126     -0.501742     -3.756450
  C       2.592519     -0.387001     -3.393341
  H       1.549398      1.403723     -0.606809
  H       3.815966      0.348926     -1.787877
  H       3.321081     -0.709665     -4.121903
  H      -0.874242     -3.176540     -0.130157
  H      -0.750978     -2.417569      2.478965
  H       1.787102     -1.651869      2.988983
  O       1.390247      2.390885      0.246144
  O       0.539374      0.922673      1.695227
  C       0.957080      2.092404      1.363966
  C       0.924673      3.115927      2.461173
  H       0.863173      4.120006      2.050065
  H       1.851744      3.049092      3.034155
  H       0.102096      2.941545      3.150839
  H       3.212276     -1.933465      0.741489
  H       1.562812     -2.864753     -1.195561
39
Coordinates from ORCA-job reaction4-IEIP_ts_guess_scan_0-13_orca E -1288.390423857367
  Ir      0.560403     -0.746816      0.531453
  C       0.004169     -2.821428      0.391250
  C       0.054676     -2.380047      1.763784
  C       2.163489     -2.163197      0.865415
  C       1.283000     -2.657043     -0.169937
  C       1.418213     -2.031066      2.049400
  N      -1.036084      0.141323     -0.498644
  C      -2.323675      0.455469      0.144613
  C      -3.116825      1.535185     -0.575001
  H      -3.954764      1.833763      0.053506
  H      -3.544368      1.193277     -1.518792
  H      -2.518087      2.426915     -0.762658
  C      -3.139785     -0.820161      0.314322
  H      -2.056135      0.831027      1.133889
  H      -4.068245     -0.594159      0.836663
  H      -3.399011     -1.255824     -0.651562
  H      -2.612932     -1.569461      0.903446
  C      -0.828338      0.347929     -1.743940
  C       0.517242      0.169618     -2.234875
  H      -1.622609      0.684874     -2.404593
  C       1.630154      0.509367     -1.477935
  C       2.821953      0.154797     -2.168935
  S       0.919407     -0.495387     -3.761106
  C       2.591112     -0.383664     -3.398434
  H       1.550744      1.403598     -0.604988
  H       3.816126      0.345197     -1.791052
  H       3.318993     -0.704231     -4.128585
  H      -0.874269     -3.176424     -0.128227
  H      -0.752772     -2.415938      2.480430
  H       1.784901     -1.649832      2.991613
  O       1.393324      2.391326      0.247631
  O       0.539158      0.922991      1.694478
  C       0.958311      2.092079      1.364987
  C       0.925856      3.115463      2.462053
  H       0.865353      4.119714      2.051212
  H       1.852476      3.047842      3.035668
  H       0.102587      2.941312      3.150921
  H       3.211906     -1.933516      0.745459
  H       1.563716     -2.865684     -1.192189
39
Coordinates from ORCA-job reaction4-IEIP_ts_guess_scan_0-13_orca E -1288.390426667096
  Ir      0.560411     -0.747513      0.532148
  C       0.002967     -2.821790      0.394015
  C       0.052980     -2.379240      1.766133
  C       2.162490     -2.164450      0.868657
  C       1.282258     -2.658730     -0.166697
  C       1.416533     -2.030642      2.052057
  N      -1.035807      0.140450     -0.499004
  C      -2.323795      0.453555      0.144062
  C      -3.116983      1.534025     -0.574416
  H      -3.955182      1.831610      0.054215
  H      -3.544193      1.193210     -1.518752
  H      -2.518417      2.426138     -0.760792
  C      -3.139891     -0.822332      0.311930
  H      -2.056835      0.827981      1.133931
  H      -4.068549     -0.597038      0.834225
  H      -3.398743     -1.256825     -0.654582
  H      -2.613205     -1.572324      0.900302
  C      -0.828060      0.348437     -1.744133
  C       0.517202      0.171593     -2.235931
  H      -1.622666      0.685744     -2.404191
  C       1.630348      0.507479     -1.477884
  C       2.821775      0.154622     -2.170306
  S       0.918516     -0.487914     -3.764848
  C       2.590368     -0.378407     -3.402093
  H       1.551882      1.402877     -0.604422
  H       3.816184      0.342654     -1.791850
  H       3.317960     -0.696464     -4.133616
  H      -0.875382     -3.176789     -0.125612
  H      -0.754854     -2.414050      2.482393
  H       1.782892     -1.648598      2.994074
  O       1.396326      2.391621      0.247362
  O       0.539915      0.923967      1.693678
  C       0.960158      2.092355      1.364648
  C       0.928255      3.116344      2.461064
  H       0.868231      4.120433      2.049802
  H       1.854877      3.048548      3.034664
  H       0.104883      2.942827      3.149988
  H       3.211134     -1.935608      0.749098
  H       1.563388     -2.868570     -1.188578
39
Coordinates from ORCA-job reaction4-IEIP_ts_guess_scan_0-13_orca E -1288.390429373400
  Ir      0.560185     -0.748421      0.533215
  C       0.002102     -2.822402      0.396857
  C       0.050631     -2.378681      1.768575
  C       2.161392     -2.165572      0.873344
  C       1.282177     -2.660436     -0.162565
  C       1.413932     -2.030174      2.055648
  N      -1.035266      0.138999     -0.499153
  C      -2.323513      0.451226      0.143955
  C      -3.116316      1.533173     -0.572767
  H      -3.954498      1.829902      0.056292
  H      -3.543567      1.194113     -1.517714
  H      -2.517499      2.425442     -0.757563
  C      -3.140238     -0.824594      0.309417
  H      -2.056927      0.823972      1.134573
  H      -4.069044     -0.599734      0.831640
  H      -3.398823     -1.257443     -0.657902
  H      -2.614194     -1.575763      0.896824
  C      -0.827767      0.348509     -1.744122
  C       0.517023      0.173654     -2.237176
  H      -1.622974      0.686003     -2.403366
  C       1.630641      0.504574     -1.477787
  C       2.821673      0.154715     -2.172207
  S       0.917489     -0.476803     -3.770205
  C       2.589463     -0.371688     -3.406757
  H       1.553395      1.400463     -0.604144
  H       3.816368      0.339534     -1.792945
  H       3.316678     -0.686637     -4.139995
  H      -0.875703     -3.177629     -0.123522
  H      -0.758056     -2.412525      2.483912
  H       1.779276     -1.647197      2.997683
  O       1.400073      2.390615      0.246407
  O       0.539954      0.924601      1.692455
  C       0.961904      2.091940      1.363460
  C       0.930304      3.117188      2.458722
  H       0.870785      4.120844      2.046387
  H       1.856844      3.049616      3.032491
  H       0.106751      2.944742      3.147727
  H       3.210309     -1.937420      0.754913
  H       1.564407     -2.871517     -1.183869
39
Coordinates from ORCA-job reaction4-IEIP_ts_guess_scan_0-13_orca E -1288.390431806309
  Ir      0.560043     -0.749352      0.534667
  C       0.001675     -2.823174      0.399003
  C       0.048236     -2.378688      1.770496
  C       2.160490     -2.166762      0.878315
  C       1.282665     -2.661967     -0.158602
  C       1.411180     -2.030302      2.059323
  N      -1.034641      0.137900     -0.499009
  C      -2.323075      0.449516      0.144157
  C      -3.115229      1.533048     -0.570942
  H      -3.953308      1.829205      0.058527
  H      -3.542612      1.195745     -1.516456
  H      -2.515919      2.425285     -0.754258
  C      -3.140574     -0.826134      0.307195
  H      -2.056779      0.820575      1.135486
  H      -4.069568     -0.601565      0.829215
  H      -3.398826     -1.257385     -0.660925
  H      -2.615325     -1.578514      0.893749
  C      -0.827609      0.348163     -1.744004
  C       0.516631      0.174602     -2.238216
  H      -1.623517      0.685171     -2.402656
  C       1.630747      0.501264     -1.477683
  C       2.821477      0.155094     -2.174203
  S       0.916476     -0.469977     -3.773854
  C       2.588588     -0.364275     -3.411693
  H       1.554570      1.397000     -0.604014
  H       3.816363      0.338180     -1.794649
  H       3.315488     -0.674770     -4.147142
  H      -0.875355     -3.178596     -0.122548
  H      -0.761543     -2.411858      2.484624
  H       1.775188     -1.646741      3.001641
  O       1.403131      2.388545      0.245252
  O       0.539856      0.924858      1.691950
  C       0.963347      2.091227      1.362180
  C       0.931849      3.118032      2.456084
  H       0.872282      4.121079      2.042294
  H       1.858498      3.051295      3.029776
  H       0.108419      2.946602      3.145497
  H       3.209696     -1.939155      0.761459
  H       1.566356     -2.873979     -1.179293
39
Coordinates from ORCA-job reaction4-IEIP_ts_guess_scan_0-13_orca E -1288.390434580940
  Ir      0.560102     -0.749534      0.535463
  C       0.002127     -2.823473      0.399387
  C       0.047039     -2.378816      1.770877
  C       2.160371     -2.166907      0.881196
  C       1.283762     -2.662280     -0.156681
  C       1.409622     -2.030322      2.061256
  N      -1.034344      0.137552     -0.498811
  C      -2.322905      0.448465      0.144550
  C      -3.114657      1.533271     -0.569113
  H      -3.952654      1.828852      0.060739
  H      -3.542140      1.197438     -1.515101
  H      -2.515004      2.425529     -0.751179
  C      -3.140740     -0.827249      0.305398
  H      -2.056831      0.818018      1.136487
  H      -4.069921     -0.603227      0.827324
  H      -3.398656     -1.257070     -0.663447
  H      -2.615927     -1.580619      0.891081
  C      -0.827898      0.348147     -1.743924
  C       0.515933      0.175488     -2.239058
  H      -1.624421      0.684620     -2.402102
  C       1.630378      0.499765     -1.477932
  C       2.820934      0.154496     -2.174931
  S       0.915649     -0.463983     -3.776797
  C       2.587655     -0.361922     -3.413668
  H       1.555151      1.394897     -0.603911
  H       3.815925      0.335482     -1.794675
  H       3.314382     -0.671573     -4.149645
  H      -0.874188     -3.179129     -0.123209
  H      -0.763591     -2.411928      2.484040
  H       1.772494     -1.646622      3.003957
  O       1.404955      2.387285      0.244590
  O       0.539763      0.925396      1.691991
  C       0.964243      2.091248      1.361416
  C       0.932660      3.119026      2.454489
  H       0.872579      4.121644      2.039716
  H       1.859558      3.053205      3.027878
  H       0.109566      2.947990      3.144388
  H       3.209738     -1.939383      0.765668
  H       1.568659     -2.874587     -1.176967
