39
Generated by autodE on: 2023-08-13. E = -1288.394509 Ha
Ir    0.57263  -0.73527   0.49191
C     0.01486  -2.81182   0.36147
C     0.09347  -2.37108   1.73321
C     2.18202  -2.15151   0.79031
C     1.28159  -2.64789  -0.22642
C     1.46192  -2.02006   1.98995
N    -1.04102   0.16075  -0.51058
C    -2.31867   0.48971   0.14229
C    -3.12906   1.54066  -0.59942
H    -3.96334   1.84891   0.02920
H    -3.56253   1.16735  -1.52864
H    -2.54188   2.43315  -0.81803
C    -3.12398  -0.78421   0.36638
H    -2.03527   0.89766   1.11412
H    -4.04406  -0.54550   0.89768
H    -3.39836  -1.25142  -0.58038
H    -2.58332  -1.51164   0.97025
C    -0.83160   0.36610  -1.75396
C     0.51905   0.16032  -2.22763
H    -1.61481   0.71650  -2.42040
C     1.62520   0.52313  -1.46960
C     2.82570   0.12926  -2.12594
S     0.93781  -0.58436  -3.70875
C     2.60745  -0.46904  -3.32809
H     1.53859   1.39931  -0.64652
H     3.81478   0.33260  -1.74176
H     3.34168  -0.83149  -4.03172
H    -0.87459  -3.16646  -0.13926
H    -0.69840  -2.40758   2.46699
H     1.84794  -1.63733   2.92379
O     1.33241   2.42782   0.25894
O     0.53759   0.90837   1.68627
C     0.92297   2.09840   1.37219
C     0.87621   3.09187   2.49791
H     0.83119   4.10709   2.11327
H     1.78833   3.00004   3.09095
H     0.03717   2.90697   3.16526
H     3.22746  -1.92048   0.64880
H     1.54225  -2.85965  -1.25330
