39
Coordinates from ORCA-job reaction4-IEIP_ts_guess_scan_12-3_orca E -1288.397755708995
  Ir      0.632813     -0.710655      0.400258
  C       0.139480     -2.828571      0.315731
  C       0.006596     -2.373723      1.673927
  C       2.205765     -2.072558      1.020339
  C       1.480110     -2.647187     -0.083429
  C       1.291517     -1.934713      2.095510
  N      -1.057030      0.139229     -0.521782
  C      -2.318055      0.378313      0.195824
  C      -3.113667      1.559777     -0.340024
  H      -3.933622      1.771222      0.344710
  H      -3.565121      1.360078     -1.312801
  H      -2.506794      2.462624     -0.411722
  C      -3.148427     -0.900747      0.195291
  H      -2.019392      0.602430      1.220798
  H      -4.046268     -0.758238      0.795152
  H      -3.461239     -1.166600     -0.815270
  H      -2.602557     -1.742972      0.617376
  C      -0.910924      0.440541     -1.753492
  C       0.410255      0.237204     -2.259725
  H      -1.713869      0.853511     -2.355687
  C       1.449921      0.119186     -1.330032
  C       2.670610     -0.172286     -2.020469
  S       0.898815      0.006093     -3.863934
  C       2.519666     -0.259713     -3.368485
  H       1.549953      1.131695     -0.629812
  H       3.631374     -0.252762     -1.532917
  H       3.281919     -0.441921     -4.110736
  H      -0.648284     -3.244615     -0.295444
  H      -0.880486     -2.420550      2.287096
  H       1.518958     -1.498220      3.057850
  O       1.571099      2.379125      0.123007
  O       0.564197      0.995320      1.546113
  C       1.045861      2.134892      1.215969
  C       0.973776      3.203187      2.270118
  H       0.960614      4.191665      1.818672
  H       1.863481      3.137956      2.899046
  H       0.106742      3.073183      2.913345
  H       3.261322     -1.850548      1.050201
  H       1.890259     -2.901462     -1.049827
39
Coordinates from ORCA-job reaction4-IEIP_ts_guess_scan_12-3_orca E -1288.397792274762
  Ir      0.629901     -0.703940      0.395954
  C       0.142443     -2.825645      0.316164
  C       0.008941     -2.371538      1.674475
  C       2.206067     -2.062468      1.019969
  C       1.482485     -2.640880     -0.083116
  C       1.291285     -1.926887      2.094740
  N      -1.065304      0.137938     -0.524053
  C      -2.325944      0.376606      0.194593
  C      -3.124390      1.554466     -0.344941
  H      -3.944474      1.766478      0.339445
  H      -3.575778      1.350454     -1.316859
  H      -2.519530      2.458404     -0.420093
  C      -3.153582     -0.904170      0.199319
  H      -2.026970      0.604997      1.218542
  H      -4.050985     -0.761698      0.799845
  H      -3.467118     -1.174092     -0.809946
  H      -2.605309     -1.743789      0.623475
  C      -0.918703      0.434697     -1.761679
  C       0.405716      0.233429     -2.270320
  H      -1.723097      0.842833     -2.365142
  C       1.444246      0.120126     -1.338393
  C       2.666903     -0.170483     -2.026575
  S       0.897464      0.000289     -3.873295
  C       2.518168     -0.262242     -3.374497
  H       1.546790      1.152033     -0.655724
  H       3.627414     -0.246132     -1.537588
  H       3.282003     -0.444995     -4.114890
  H      -0.643988     -3.245102     -0.294435
  H      -0.877641     -2.421206      2.288056
  H       1.517362     -1.489121      3.056819
  O       1.653668      2.350538      0.166121
  O       0.550354      1.002923      1.545698
  C       1.072654      2.128962      1.235768
  C       0.982333      3.203986      2.281234
  H       1.014407      4.190197      1.825718
  H       1.841863      3.119096      2.948594
  H       0.085019      3.099387      2.886310
  H       3.261151     -1.838287      1.050379
  H       1.893546     -2.895974     -1.048929
39
Coordinates from ORCA-job reaction4-IEIP_ts_guess_scan_12-3_orca E -1288.397196743655
  Ir      0.638595     -0.710288      0.396920
  C       0.139985     -2.834196      0.313560
  C       0.010415     -2.390196      1.675439
  C       2.206217     -2.083239      1.019950
  C       1.480702     -2.653940     -0.085539
  C       1.291751     -1.950214      2.095213
  N      -1.055902      0.143513     -0.511147
  C      -2.315636      0.382135      0.208880
  C      -3.106322      1.568735     -0.322848
  H      -3.927296      1.779270      0.360898
  H      -3.555688      1.375384     -1.297905
  H      -2.496524      2.470100     -0.388702
  C      -3.150044     -0.894140      0.201147
  H      -2.017330      0.600128      1.235283
  H      -4.047207     -0.752605      0.802255
  H      -3.464205     -1.153346     -0.810740
  H      -2.606382     -1.740366      0.618056
  C      -0.900189      0.453922     -1.755097
  C       0.429498      0.249520     -2.271924
  H      -1.701822      0.871902     -2.355264
  C       1.463319      0.103510     -1.337371
  C       2.683066     -0.202198     -2.026523
  S       0.923463      0.031839     -3.876388
  C       2.537311     -0.272094     -3.375797
  H       1.607422      1.160560     -0.673233
  H       3.640912     -0.300520     -1.536015
  H       3.300135     -0.459700     -4.115840
  H      -0.648352     -3.248039     -0.298481
  H      -0.875518     -2.440376      2.289691
  H       1.519941     -1.518891      3.059681
  O       1.464170      2.389071      0.097160
  O       0.556975      0.994969      1.562933
  C       0.999019      2.143062      1.218083
  C       0.948632      3.215738      2.267403
  H       0.887919      4.200458      1.811434
  H       1.868506      3.177985      2.853617
  H       0.116469      3.066815      2.950901
  H       3.262754     -1.866441      1.053040
  H       1.890611     -2.908637     -1.051989
39
Coordinates from ORCA-job reaction4-IEIP_ts_guess_scan_12-3_orca E -1288.398073529697
  Ir      0.631383     -0.710680      0.398881
  C       0.133466     -2.831543      0.324566
  C       0.004277     -2.378770      1.683501
  C       2.200845     -2.076907      1.024989
  C       1.473960     -2.652950     -0.076854
  C       1.287481     -1.937683      2.100767
  N      -1.060638      0.137692     -0.518109
  C      -2.321893      0.374031      0.198704
  C      -3.117010      1.555729     -0.337307
  H      -3.939298      1.765286      0.345213
  H      -3.564989      1.357301     -1.311960
  H      -2.510660      2.459180     -0.405685
  C      -3.150949     -0.905823      0.194568
  H      -2.024879      0.596476      1.224463
  H      -4.049254     -0.765757      0.794323
  H      -3.462936     -1.169752     -0.816735
  H      -2.604205     -1.748332      0.615005
  C      -0.910883      0.443803     -1.755279
  C       0.414475      0.244933     -2.267656
  H      -1.714548      0.858084     -2.355331
  C       1.450547      0.109410     -1.335081
  C       2.673762     -0.177628     -2.025144
  S       0.908256      0.031808     -3.872435
  C       2.527804     -0.243886     -3.374802
  H       1.566597      1.146647     -0.651324
  H       3.632858     -0.265486     -1.535383
  H       3.292523     -0.416880     -4.116655
  H      -0.655508     -3.248059     -0.284741
  H      -0.881637     -2.424615      2.298262
  H       1.516526     -1.500536      3.062407
  O       1.575926      2.382331      0.120857
  O       0.564076      1.000039      1.543784
  C       1.048571      2.137981      1.214600
  C       0.978659      3.207486      2.266345
  H       0.964409      4.195239      1.813290
  H       1.869700      3.143277      2.893423
  H       0.112715      3.077819      2.910872
  H       3.257142     -1.858603      1.055130
  H       1.882700     -2.911473     -1.042730
39
Coordinates from ORCA-job reaction4-IEIP_ts_guess_scan_12-3_orca E -1288.398110279890
  Ir      0.630521     -0.711264      0.399501
  C       0.132348     -2.831718      0.328434
  C       0.002540     -2.378384      1.686967
  C       2.199327     -2.076650      1.028842
  C       1.473144     -2.653702     -0.072681
  C       1.285259     -1.936692      2.104092
  N      -1.060906      0.136430     -0.519228
  C      -2.322784      0.371283      0.197085
  C      -3.119275      1.552584     -0.337894
  H      -3.941826      1.760709      0.344734
  H      -3.567062      1.354456     -1.312676
  H      -2.513885      2.456736     -0.405519
  C      -3.150846     -0.909267      0.192313
  H      -2.026168      0.593314      1.223132
  H      -4.049357     -0.770209      0.792018
  H      -3.462424     -1.172992     -0.819160
  H      -2.603462     -1.751452      0.612481
  C      -0.911401      0.445082     -1.754843
  C       0.412988      0.247941     -2.268002
  H      -1.715352      0.860619     -2.353564
  C       1.448744      0.106702     -1.335909
  C       2.671802     -0.177442     -2.027281
  S       0.908206      0.051203     -3.874220
  C       2.525767     -0.237009     -3.377261
  H       1.567819      1.147007     -0.656196
  H       3.630396     -0.271093     -1.537699
  H       3.290086     -0.408478     -4.119880
  H      -0.656299     -3.248768     -0.280907
  H      -0.883844     -2.423205      2.301128
  H       1.513887     -1.498478      3.065357
  O       1.593442      2.376624      0.125245
  O       0.563877      1.001691      1.541288
  C       1.055850      2.136433      1.214990
  C       0.982956      3.208458      2.264313
  H       0.975708      4.195437      1.809384
  H       1.869491      3.142001      2.897532
  H       0.112143      3.083452      2.903222
  H       3.255683     -1.858749      1.059656
  H       1.882276     -2.913421     -1.038056
39
Coordinates from ORCA-job reaction4-IEIP_ts_guess_scan_12-3_orca E -1288.398147250416
  Ir      0.627200     -0.715779      0.402428
  C       0.124399     -2.834319      0.343039
  C      -0.005993     -2.378354      1.700331
  C       2.191711     -2.081015      1.042476
  C       1.466374     -2.660690     -0.057589
  C       1.275989     -1.936441      2.116306
  N      -1.061755      0.133214     -0.520845
  C      -2.326035      0.362035      0.193562
  C      -3.126598      1.542117     -0.338193
  H      -3.950627      1.744823      0.344197
  H      -3.572790      1.345493     -1.314008
  H      -2.524554      2.448782     -0.402215
  C      -3.150281     -0.921080      0.184446
  H      -2.031794      0.581938      1.220918
  H      -4.050232     -0.786212      0.782963
  H      -3.459208     -1.183348     -0.828211
  H      -2.601035     -1.762458      0.603614
  C      -0.911353      0.452107     -1.752612
  C       0.410895      0.258501     -2.268454
  H      -1.715783      0.871756     -2.347732
  C       1.444422      0.094217     -1.337186
  C       2.668050     -0.178105     -2.032458
  S       0.908990      0.099361     -3.877359
  C       2.525701     -0.199236     -3.384059
  H       1.574987      1.143231     -0.666618
  H       3.624989     -0.287733     -1.543083
  H       3.291551     -0.351877     -4.129220
  H      -0.664120     -3.252152     -0.265910
  H      -0.893614     -2.418290      2.313002
  H       1.504380     -1.494694      3.076039
  O       1.628586      2.365156      0.125398
  O       0.567481      1.006498      1.532751
  C       1.074359      2.133644      1.209332
  C       1.000669      3.212422      2.252302
  H       1.004208      4.196945      1.791992
  H       1.881710      3.143332      2.892862
  H       0.123844      3.097188      2.884822
  H       3.248646     -1.866239      1.075038
  H       1.876000     -2.925548     -1.021325
39
Coordinates from ORCA-job reaction4-IEIP_ts_guess_scan_12-3_orca E -1288.398149905546
  Ir      0.624928     -0.719703      0.403643
  C       0.119116     -2.836728      0.351313
  C      -0.012666     -2.378714      1.707826
  C       2.186236     -2.084509      1.051992
  C       1.462277     -2.666073     -0.047742
  C       1.268602     -1.936553      2.124194
  N      -1.062123      0.131238     -0.521208
  C      -2.327438      0.355652      0.192914
  C      -3.130581      1.534988     -0.336419
  H      -3.955236      1.733944      0.346249
  H      -3.576083      1.339559     -1.312829
  H      -2.530774      2.443316     -0.398092
  C      -3.148954     -0.929183      0.180201
  H      -2.034555      0.573867      1.221052
  H      -4.050123     -0.797200      0.777499
  H      -3.455679     -1.190279     -0.833429
  H      -2.598778     -1.770207      0.598775
  C      -0.910322      0.459947     -1.750610
  C       0.411796      0.269990     -2.267969
  H      -1.714304      0.884932     -2.342577
  C       1.443097      0.086048     -1.337497
  C       2.666974     -0.179641     -2.035434
  S       0.913773      0.143763     -3.878322
  C       2.526608     -0.178307     -3.387484
  H       1.583423      1.137823     -0.667625
  H       3.622257     -0.304488     -1.546405
  H       3.292688     -0.323523     -4.133900
  H      -0.668753     -3.255276     -0.257999
  H      -0.901490     -2.415530      2.318898
  H       1.496094     -1.492299      3.082991
  O       1.637724      2.364284      0.117302
  O       0.570204      1.009213      1.525403
  C       1.080945      2.133920      1.200898
  C       1.010837      3.214748      2.241998
  H       1.013483      4.198276      1.779580
  H       1.893834      3.146672      2.879942
  H       0.135788      3.101164      2.877181
  H       3.243489     -1.871610      1.086469
  H       1.873055     -2.934336     -1.010040
39
Coordinates from ORCA-job reaction4-IEIP_ts_guess_scan_12-3_orca E -1288.398155096405
  Ir      0.624722     -0.721262      0.403295
  C       0.118663     -2.837737      0.352147
  C      -0.015392     -2.378655      1.708248
  C       2.184791     -2.085353      1.056086
  C       1.462746     -2.667807     -0.044434
  C       1.265215     -1.936326      2.126582
  N      -1.061766      0.131214     -0.521297
  C      -2.326767      0.354746      0.193604
  C      -3.130763      1.533649     -0.335248
  H      -3.955093      1.731915      0.348012
  H      -3.576699      1.338071     -1.311442
  H      -2.531616      2.442407     -0.397073
  C      -3.147651     -0.930447      0.180610
  H      -2.033642      0.573039      1.221645
  H      -4.049323     -0.798669      0.777206
  H      -3.453540     -1.191866     -0.833178
  H      -2.597630     -1.771262      0.599726
  C      -0.909688      0.463757     -1.750003
  C       0.412200      0.273355     -2.268170
  H      -1.713311      0.891041     -2.340741
  C       1.443045      0.082748     -1.338577
  C       2.666480     -0.181711     -2.037728
  S       0.913648      0.151545     -3.879099
  C       2.526556     -0.171653     -3.389852
  H       1.587995      1.134395     -0.667565
  H       3.621503     -0.310881     -1.549268
  H       3.292777     -0.313020     -4.136858
  H      -0.667993     -3.256952     -0.258259
  H      -0.905258     -2.414842      2.317831
  H       1.491123     -1.491187      3.085340
  O       1.639098      2.362331      0.115266
  O       0.569197      1.009116      1.523272
  C       1.081711      2.133070      1.198862
  C       1.011508      3.214786      2.238914
  H       1.012544      4.197750      1.775273
  H       1.895395      3.148458      2.875792
  H       0.137306      3.100987      2.875171
  H       3.242013     -1.872563      1.092380
  H       1.875265     -2.936996     -1.005729
39
Coordinates from ORCA-job reaction4-IEIP_ts_guess_scan_12-3_orca E -1288.398155015943
  Ir      0.624381     -0.721780      0.402434
  C       0.119623     -2.838055      0.351829
  C      -0.018505     -2.377291      1.707209
  C       2.183559     -2.084080      1.061279
  C       1.464964     -2.668084     -0.040672
  C       1.260793     -1.934245      2.129007
  N      -1.062170      0.131881     -0.521678
  C      -2.327117      0.353583      0.193957
  C      -3.133105      1.531359     -0.334364
  H      -3.957306      1.728081      0.349506
  H      -3.579272      1.335241     -1.310350
  H      -2.535562      2.441177     -0.396241
  C      -3.146362     -0.932611      0.180339
  H      -2.034020      0.572177      1.221910
  H      -4.048985     -0.801703      0.775708
  H      -3.450668     -1.194614     -0.833764
  H      -2.596161     -1.772845      0.600285
  C      -0.909753      0.468651     -1.749486
  C       0.411901      0.277564     -2.268400
  H      -1.712883      0.898519     -2.338933
  C       1.442621      0.080606     -1.340226
  C       2.665071     -0.184093     -2.040815
  S       0.912199      0.159129     -3.880128
  C       2.524688     -0.167910     -3.392916
  H       1.592869      1.130233     -0.665760
  H       3.619988     -0.317691     -1.553313
  H       3.290510     -0.307630     -4.140637
  H      -0.664803     -3.258807     -0.260369
  H      -0.909927     -2.413493      2.314511
  H       1.483761     -1.487969      3.087917
  O       1.647152      2.358370      0.116544
  O       0.566920      1.009954      1.521101
  C       1.084419      2.132228      1.197978
  C       1.014579      3.214559      2.237240
  H       1.016847      4.197081      1.772612
  H       1.898175      3.148048      2.874481
  H       0.139906      3.102205      2.873039
  H       3.240538     -1.870555      1.100376
  H       1.880503     -2.938003     -1.000468
39
Coordinates from ORCA-job reaction4-IEIP_ts_guess_scan_12-3_orca E -1288.398145220074
  Ir      0.623752     -0.721435      0.400849
  C       0.122427     -2.837870      0.350320
  C      -0.023621     -2.374404      1.704358
  C       2.181753     -2.080098      1.070277
  C       1.469953     -2.666951     -0.034451
  C       1.252872     -1.929684      2.132822
  N      -1.063294      0.133669     -0.522020
  C      -2.328470      0.351546      0.194371
  C      -3.138302      1.527149     -0.332974
  H      -3.962743      1.720575      0.351538
  H      -3.584242      1.330139     -1.308897
  H      -2.543974      2.439111     -0.394355
  C      -3.144352     -0.936733      0.178963
  H      -2.035828      0.570436      1.222362
  H      -4.048793     -0.808057      0.772096
  H      -3.445611     -1.199366     -0.835875
  H      -2.593519     -1.775936      0.599999
  C      -0.910486      0.477113     -1.748144
  C       0.410524      0.285159     -2.268553
  H      -1.712961      0.911184     -2.335307
  C       1.441422      0.078388     -1.343256
  C       2.661585     -0.188380     -2.046642
  S       0.908010      0.171358     -3.881844
  C       2.519420     -0.164592     -3.398587
  H       1.601479      1.123161     -0.661665
  H       3.616546     -0.329109     -1.561225
  H       3.283894     -0.303955     -4.147749
  H      -0.657620     -3.261717     -0.265293
  H      -0.917891     -2.411404      2.307414
  H       1.469990     -1.481601      3.092223
  O       1.669306      2.349028      0.123137
  O       0.563196      1.011801      1.517863
  C       1.094566      2.129288      1.199403
  C       1.020614      3.214318      2.235284
  H       1.026713      4.195408      1.767530
  H       1.901110      3.148717      2.876833
  H       0.142521      3.105240      2.866822
  H       3.238149     -1.864693      1.114644
  H       1.891273     -2.937615     -0.991528
39
Coordinates from ORCA-job reaction4-IEIP_ts_guess_scan_12-3_orca E -1288.398136695889
  Ir      0.622569     -0.719215      0.399730
  C       0.126334     -2.836740      0.348658
  C      -0.027271     -2.371446      1.701490
  C       2.180617     -2.073602      1.078024
  C       1.475508     -2.663440     -0.029209
  C       1.246086     -1.924077      2.135948
  N      -1.065420      0.135069     -0.522575
  C      -2.331333      0.349401      0.193433
  C      -3.144325      1.523068     -0.333457
  H      -3.969627      1.713457      0.350842
  H      -3.589169      1.325338     -1.309739
  H      -2.552809      2.436923     -0.393801
  C      -3.144076     -0.940859      0.175968
  H      -2.039753      0.568400      1.221717
  H      -4.050057     -0.814684      0.767314
  H      -3.442711     -1.203577     -0.839622
  H      -2.592342     -1.779200      0.597451
  C      -0.912410      0.482006     -1.747555
  C       0.408093      0.290197     -2.268870
  H      -1.714731      0.918006     -2.333475
  C       1.439421      0.078684     -1.345640
  C       2.657710     -0.190818     -2.050925
  S       0.902968      0.176984     -3.883277
  C       2.513633     -0.165022     -3.402721
  H       1.606726      1.118958     -0.658312
  H       3.612963     -0.334944     -1.567090
  H       3.276811     -0.306084     -4.152888
  H      -0.649435     -3.263926     -0.270013
  H      -0.924026     -2.410292      2.300732
  H       1.457407     -1.474504      3.095946
  O       1.688837      2.341405      0.130451
  O       0.558905      1.014828      1.515726
  C       1.101371      2.128214      1.200970
  C       1.030787      3.213340      2.236906
  H       1.042107      4.194296      1.768883
  H       1.910283      3.144196      2.879459
  H       0.151272      3.108457      2.867083
  H       3.236267     -1.855570      1.127115
  H       1.902193     -2.934038     -0.983938
39
Coordinates from ORCA-job reaction4-IEIP_ts_guess_scan_12-3_orca E -1288.398138162407
  Ir      0.621973     -0.717251      0.399538
  C       0.129411     -2.836052      0.346746
  C      -0.027963     -2.371167      1.699298
  C       2.180702     -2.069434      1.080846
  C       1.479115     -2.660413     -0.027859
  C       1.243437     -1.921942      2.136734
  N      -1.066894      0.135412     -0.522482
  C      -2.333325      0.348634      0.192812
  C      -3.146648      1.522431     -0.333347
  H      -3.972584      1.711683      0.350477
  H      -3.590636      1.325414     -1.310159
  H      -2.555548      2.436637     -0.392326
  C      -3.145531     -0.941989      0.173522
  H      -2.042424      0.566709      1.221518
  H      -4.051717     -0.817135      0.764834
  H      -3.443808     -1.203369     -0.842526
  H      -2.593461     -1.780705      0.593834
  C      -0.914050      0.481423     -1.747499
  C       0.406274      0.290334     -2.269008
  H      -1.716689      0.916775     -2.333508
  C       1.438155      0.080461     -1.346230
  C       2.655843     -0.190773     -2.051879
  S       0.899866      0.174239     -3.883659
  C       2.510508     -0.168629     -3.403607
  H       1.607293      1.118647     -0.656733
  H       3.611544     -0.333455     -1.568508
  H       3.272999     -0.312155     -4.154009
  H      -0.644184     -3.264800     -0.273552
  H      -0.925848     -2.411926      2.296719
  H       1.451653     -1.472268      3.097367
  O       1.697206      2.339029      0.134374
  O       0.557919      1.016499      1.515844
  C       1.106404      2.127536      1.203339
  C       1.036086      3.213190      2.238807
  H       1.047299      4.193926      1.770270
  H       1.915969      3.144589      2.880885
  H       0.156795      3.108719      2.869342
  H       3.235878     -1.849674      1.132274
  H       1.908353     -2.929962     -0.981748
39
Coordinates from ORCA-job reaction4-IEIP_ts_guess_scan_12-3_orca E -1288.398145357459
  Ir      0.621095     -0.715339      0.399990
  C       0.132566     -2.835643      0.344573
  C      -0.028295     -2.372725      1.697295
  C       2.180735     -2.065407      1.083273
  C       1.482606     -2.657062     -0.027056
  C       1.240921     -1.921219      2.137510
  N      -1.068408      0.134635     -0.522235
  C      -2.335219      0.347839      0.192210
  C      -3.147120      1.523179     -0.332684
  H      -3.973547      1.712223      0.350578
  H      -3.590404      1.328099     -1.310202
  H      -2.554921      2.436778     -0.389803
  C      -3.148252     -0.942292      0.170776
  H      -2.044839      0.564027      1.221498
  H      -4.053646     -0.818570      0.763515
  H      -3.447833     -1.200945     -0.845604
  H      -2.595832     -1.782274      0.588225
  C      -0.916088      0.477311     -1.747979
  C       0.404232      0.287655     -2.269369
  H      -1.719531      0.910203     -2.334818
  C       1.436612      0.082368     -1.346091
  C       2.654563     -0.189329     -2.051352
  S       0.897544      0.168159     -3.883742
  C       2.508714     -0.172090     -3.403050
  H       1.605675      1.120492     -0.657287
  H       3.610707     -0.328290     -1.567780
  H       3.271062     -0.317270     -4.153284
  H      -0.639024     -3.265428     -0.277498
  H      -0.927347     -2.415746      2.292800
  H       1.446069     -1.471953      3.099001
  O       1.699370      2.339630      0.135299
  O       0.557786      1.018206      1.516120
  C       1.108925      2.127900      1.204504
  C       1.041608      3.213249      2.240686
  H       1.048561      4.194155      1.772388
  H       1.925052      3.146514      2.878074
  H       0.165748      3.106940      2.875652
  H       3.235443     -1.844008      1.137069
  H       1.914081     -2.924780     -0.980460
39
Coordinates from ORCA-job reaction4-IEIP_ts_guess_scan_12-3_orca E -1288.398149289133
  Ir      0.620468     -0.714808      0.400377
  C       0.135224     -2.835890      0.342566
  C      -0.029628     -2.374585      1.695405
  C       2.180340     -2.062832      1.086933
  C       1.485976     -2.655117     -0.025279
  C       1.237495     -1.921202      2.139059
  N      -1.069398      0.133747     -0.522014
  C      -2.336235      0.346917      0.192371
  C      -3.146768      1.523873     -0.330959
  H      -3.973238      1.712800      0.352281
  H      -3.589943      1.330811     -1.308927
  H      -2.553425      2.436813     -0.386542
  C      -3.150213     -0.942603      0.168926
  H      -2.046001      0.561264      1.222082
  H      -4.054777     -0.819766      0.763104
  H      -3.451178     -1.198674     -0.847708
  H      -2.597638     -1.783882      0.583618
  C      -0.917585      0.474956     -1.748199
  C       0.402725      0.286035     -2.269681
  H      -1.721602      0.906377     -2.335383
  C       1.435364      0.082388     -1.346228
  C       2.653523     -0.188797     -2.051521
  S       0.895955      0.165817     -3.883936
  C       2.507586     -0.172474     -3.403198
  H       1.605549      1.120870     -0.658216
  H       3.609859     -0.326274     -1.567893
  H       3.269956     -0.317335     -4.153471
  H      -0.634129     -3.266531     -0.281678
  H      -0.930240     -2.419172      2.288431
  H       1.439339     -1.472130      3.101341
  O       1.701256      2.339489      0.134925
  O       0.557493      1.019432      1.515366
  C       1.110600      2.128100      1.204186
  C       1.045318      3.213630      2.240394
  H       1.046801      4.194341      1.771583
  H       1.932573      3.150179      2.872812
  H       0.173219      3.104991      2.880076
  H       3.234635     -1.840228      1.143641
  H       1.920114     -2.921341     -0.977903
39
Coordinates from ORCA-job reaction4-IEIP_ts_guess_scan_12-3_orca E -1288.398155208159
  Ir      0.619797     -0.714781      0.401013
  C       0.140596     -2.836734      0.337569
  C      -0.032946     -2.378596      1.690628
  C       2.179450     -2.058980      1.094879
  C       1.493118     -2.652099     -0.021626
  C       1.229968     -1.922117      2.142197
  N      -1.070604      0.132051     -0.521318
  C      -2.337077      0.345421      0.193730
  C      -3.144700      1.525926     -0.326033
  H      -3.970816      1.714822      0.357661
  H      -3.588208      1.337207     -1.304690
  H      -2.548843      2.437384     -0.378714
  C      -3.153343     -0.942566      0.166277
  H      -2.046656      0.555986      1.224129
  H      -4.056072     -0.821196      0.763526
  H      -3.457397     -1.193353     -0.850759
  H      -2.600750     -1.786674      0.575276
  C      -0.919965      0.471340     -1.748253
  C       0.400312      0.283009     -2.270073
  H      -1.724914      0.900565     -2.335803
  C       1.433485      0.081429     -1.346604
  C       2.651899     -0.188560     -2.052167
  S       0.893272      0.161941     -3.884233
  C       2.505781     -0.172799     -3.403811
  H       1.605890      1.120516     -0.659908
  H       3.608520     -0.324206     -1.568553
  H       3.268140     -0.316488     -4.154317
  H      -0.623928     -3.268773     -0.291607
  H      -0.937101     -2.425910      2.278025
  H       1.424802     -1.473666      3.106205
  O       1.703254      2.339194      0.132942
  O       0.557027      1.021160      1.513425
  C       1.112314      2.128616      1.202352
  C       1.049754      3.214743      2.238154
  H       1.037479      4.194708      1.767798
  H       1.945433      3.160328      2.859442
  H       0.186314      3.099879      2.888285
  H       3.232930     -1.834346      1.158134
  H       1.933156     -2.915192     -0.972437
39
Coordinates from ORCA-job reaction4-IEIP_ts_guess_scan_12-3_orca E -1288.398157621041
  Ir      0.620132     -0.715624      0.401411
  C       0.143827     -2.837552      0.333833
  C      -0.035235     -2.381379      1.687054
  C       2.178968     -2.058138      1.099979
  C       1.497643     -2.651174     -0.019495
  C       1.225198     -1.923834      2.144046
  N      -1.070562      0.131119     -0.520445
  C      -2.336557      0.344813      0.195484
  C      -3.142103      1.527935     -0.321566
  H      -3.967777      1.716858      0.362677
  H      -3.586066      1.342400     -1.300619
  H      -2.544466      2.438335     -0.372254
  C      -3.154733     -0.941869      0.165235
  H      -2.045721      0.552737      1.226259
  H      -4.056249     -0.821159      0.764448
  H      -3.460870     -1.189066     -0.852053
  H      -2.602538     -1.788067      0.570486
  C      -0.920733      0.469985     -1.747702
  C       0.399465      0.281347     -2.269962
  H      -1.726071      0.898587     -2.335158
  C       1.433044      0.080075     -1.346800
  C       2.651404     -0.189190     -2.052769
  S       0.892101      0.160529     -3.884220
  C       2.505033     -0.172905     -3.404384
  H       1.606383      1.119667     -0.661015
  H       3.608150     -0.324669     -1.569337
  H       3.267241     -0.315707     -4.155209
  H      -0.617665     -3.270051     -0.298684
  H      -0.941765     -2.429945      2.270681
  H       1.415705     -1.476158      3.109271
  O       1.703067      2.339072      0.130799
  O       0.557496      1.021440      1.512216
  C       1.112205      2.128990      1.200387
  C       1.049322      3.216027      2.235175
  H       1.025646      4.195030      1.763139
  H       1.950756      3.170088      2.848770
  H       0.192148      3.095705      2.892479
  H       3.232019     -1.832808      1.167674
  H       1.941527     -2.912254     -0.969091
39
Coordinates from ORCA-job reaction4-IEIP_ts_guess_scan_12-3_orca E -1288.398159004741
  Ir      0.621471     -0.717202      0.401873
  C       0.147184     -2.838636      0.329069
  C      -0.037830     -2.384617      1.682494
  C       2.178604     -2.058956      1.105459
  C       1.502580     -2.651148     -0.017523
  C       1.220098     -1.927007      2.145799
  N      -1.069532      0.130452     -0.518858
  C      -2.334845      0.344620      0.198291
  C      -3.137912      1.531007     -0.315223
  H      -3.963036      1.719802      0.369742
  H      -3.582400      1.349522     -1.294785
  H      -2.538217      2.440199     -0.363293
  C      -3.155537     -0.940320      0.164473
  H      -2.043349      0.549255      1.229488
  H      -4.055789     -0.820173      0.765707
  H      -3.463890     -1.183208     -0.853178
  H      -2.604234     -1.789146      0.565463
  C      -0.920643      0.469415     -1.746303
  C       0.399294      0.279809     -2.269378
  H      -1.726197      0.898200     -2.333295
  C       1.433469      0.078126     -1.346931
  C       2.651438     -0.190743     -2.053647
  S       0.891156      0.159562     -3.883948
  C       2.504400     -0.173679     -3.405196
  H       1.606913      1.118378     -0.662226
  H       3.608349     -0.326793     -1.570689
  H       3.266165     -0.315906     -4.156577
  H      -0.611077     -3.271170     -0.307277
  H      -0.947026     -2.434134      2.261897
  H       1.406064     -1.480764      3.112563
  O       1.701036      2.339224      0.127673
  O       0.559294      1.020770      1.511390
  C       1.110859      2.129456      1.197682
  C       1.045245      3.218148      2.230485
  H       1.005395      4.195429      1.755819
  H       1.953661      3.185142      2.834521
  H       0.196181      3.089832      2.896632
  H       3.231293     -1.833566      1.178289
  H       1.950732     -2.909991     -0.965742
39
Coordinates from ORCA-job reaction4-IEIP_ts_guess_scan_12-3_orca E -1288.398158980761
  Ir      0.623301     -0.718705      0.402275
  C       0.149496     -2.839586      0.325269
  C      -0.039704     -2.387124      1.678840
  C       2.178509     -2.060910      1.109390
  C       1.506146     -2.651929     -0.016284
  C       1.216555     -1.930330      2.146927
  N      -1.067970      0.130360     -0.517102
  C      -2.332777      0.344851      0.200910
  C      -3.133867      1.533972     -0.309474
  H      -3.958703      1.722333      0.375965
  H      -3.578540      1.356029     -1.289593
  H      -2.532647      2.442297     -0.354996
  C      -3.155619     -0.938590      0.163778
  H      -2.040791      0.546576      1.232515
  H      -4.055173     -0.818836      0.766142
  H      -3.465241     -1.177893     -0.854336
  H      -2.605409     -1.789637      0.561572
  C      -0.919750      0.469722     -1.744536
  C       0.399755      0.279049     -2.268571
  H      -1.725300      0.899411     -2.330853
  C       1.434506      0.076454     -1.346973
  C       2.651858     -0.192632     -2.054553
  S       0.890559      0.159412     -3.883562
  C       2.503886     -0.175005     -3.406005
  H       1.607082      1.117355     -0.663154
  H       3.608969     -0.329616     -1.572252
  H       3.265043     -0.317367     -4.157978
  H      -0.606517     -3.271846     -0.313918
  H      -0.950810     -2.437093      2.255214
  H       1.399411     -1.485631      3.114988
  O       1.697896      2.339690      0.124828
  O       0.562086      1.019419      1.511584
  C       1.109065      2.129765      1.195510
  C       1.039585      3.220303      2.226076
  H       0.984134      4.195621      1.748810
  H       1.953944      3.200333      2.821636
  H       0.197967      3.084206      2.899998
  H       3.231024     -1.836029      1.186115
  H       1.957412     -2.909211     -0.963462
39
Coordinates from ORCA-job reaction4-IEIP_ts_guess_scan_12-3_orca E -1288.398158565510
  Ir      0.625148     -0.719848      0.402601
  C       0.151218     -2.840420      0.322413
  C      -0.041102     -2.389089      1.676040
  C       2.178503     -2.062946      1.112415
  C       1.508848     -2.652914     -0.015304
  C       1.213908     -1.933255      2.147781
  N      -1.066320      0.130635     -0.515430
  C      -2.330833      0.345246      0.203027
  C      -3.130353      1.536651     -0.304572
  H      -3.955159      1.724292      0.381094
  H      -3.574898      1.361823     -1.285303
  H      -2.528027      2.444373     -0.347585
  C      -3.155403     -0.936986      0.162752
  H      -2.038593      0.544305      1.235078
  H      -4.054746     -0.817625      0.765512
  H      -3.465460     -1.173255     -0.855942
  H      -2.606309     -1.789864      0.558177
  C      -0.918554      0.470333     -1.742770
  C       0.400381      0.278790     -2.267826
  H      -1.724027      0.901195     -2.328346
  C       1.435637      0.075157     -1.347050
  C       2.652295     -0.194561     -2.055504
  S       0.889979      0.159615     -3.883255
  C       2.503269     -0.176665     -3.406834
  H       1.606784      1.116715     -0.663927
  H       3.609645     -0.332450     -1.573941
  H       3.263777     -0.319660     -4.159347
  H      -0.603119     -3.272450     -0.318890
  H      -0.953579     -2.439427      2.250223
  H       1.394465     -1.489946      3.116910
  O       1.694165      2.340377      0.122382
  O       0.565403      1.017784      1.512619
  C       1.107339      2.129854      1.194041
  C       1.034170      3.222196      2.222467
  H       0.963586      4.195457      1.742885
  H       1.954029      3.214925      2.809767
  H       0.199894      3.078645      2.903868
  H       3.230914     -1.838648      1.192141
  H       1.962497     -2.909170     -0.961626
39
Coordinates from ORCA-job reaction4-IEIP_ts_guess_scan_12-3_orca E -1288.398158835299
  Ir      0.625991     -0.720242      0.402730
  C       0.152148     -2.840935      0.321335
  C      -0.041813     -2.390073      1.674896
  C       2.178433     -2.063669      1.114118
  C       1.510234     -2.653374     -0.014516
  C       1.212460     -1.934462      2.148373
  N      -1.065512      0.130909     -0.514640
  C      -2.329990      0.345437      0.203820
  C      -3.128738      1.538009     -0.302249
  H      -3.953668      1.725052      0.383420
  H      -3.573047      1.364873     -1.283388
  H      -2.525920      2.445476     -0.343752
  C      -3.155332     -0.936261      0.161665
  H      -2.037785      0.542926      1.236197
  H      -4.054844     -0.817214      0.764232
  H      -3.465131     -1.170954     -0.857480
  H      -2.606863     -1.790009      0.556088
  C      -0.917922      0.470661     -1.741928
  C       0.400609      0.278826     -2.267602
  H      -1.723382      0.902181     -2.327066
  C       1.436071      0.074541     -1.347212
  C       2.652357     -0.195638     -2.056139
  S       0.889516      0.159958     -3.883254
  C       2.502752     -0.177589     -3.407389
  H       1.606178      1.116560     -0.664412
  H       3.609861     -0.333976     -1.575014
  H       3.262940     -0.321058     -4.160139
  H      -0.601282     -3.273084     -0.320947
  H      -0.954907     -2.440805      2.248066
  H       1.391762     -1.491680      3.117977
  O       1.691665      2.340847      0.121131
  O       0.567538      1.016747      1.513719
  C       1.106584      2.129687      1.193664
  C       1.032081      3.222999      2.221022
  H       0.952082      4.195014      1.740326
  H       1.955580      3.223285      2.802614
  H       0.202794      3.074987      2.907510
  H       3.230746     -1.839452      1.195292
  H       1.965124     -2.909309     -0.960330
