! Opt PBEh-3c
%geom Constraints
{ B 0 20 2.1285714285714286 C }
{ B 24 30 1.3142857142857143 C }
    end
end
%output 
xyzfile=True 
end 
%scf 
maxiter 250 
end
%output
Print[P_Hirshfeld] = 1
end
% maxcore
4000
*xyz 1 1
Ir   0.60684088  -0.74035967   0.44225897 
C    0.13070079  -2.84886420   0.36108471 
C   -0.10458635  -2.38811559   1.70535387 
C    2.13514111  -2.07620608   1.21385930 
C    1.50148837  -2.66871458   0.06870089 
C    1.13597375  -1.93484100   2.21543178 
N   -1.06760495   0.10613545  -0.50615582 
C   -2.34684165   0.29423358   0.19616211 
C   -3.13765033   1.50401871  -0.28171392 
H   -3.97281839   1.66874246   0.39721331 
H   -3.56651042   1.36628438  -1.27517823 
H   -2.53303721   2.41124343  -0.28314284 
C   -3.17115325  -0.98438959   0.09677943 
H   -2.07656160   0.45934362   1.24025164 
H   -4.08289701  -0.88636285   0.68473924 
H   -3.45992118  -1.18589244  -0.93558898 
H   -2.63014020  -1.85126816   0.47270708 
C   -0.91390527   0.46519529  -1.72807971 
C    0.40181903   0.30793362  -2.26926269 
H   -1.72748120   0.89125172  -2.30663851 
C    1.45111918   0.06991824  -1.38687900 
C    2.65708097  -0.15369192  -2.11376533 
S    0.87394791   0.29325407  -3.90234052 
C    2.49026169  -0.05521605  -3.46351567 
H    1.65390611   1.16413808  -0.60792360 
H    3.62040194  -0.32312610  -1.65487312 
H    3.24411228  -0.15220892  -4.23005385 
H   -0.60207011  -3.28374917  -0.30283175 
H   -1.03523335  -2.43302482   2.25009101 
H    1.28522657  -1.48602647   3.18739589 
O    1.76999234   2.27620574   0.10966370 
O    0.57216745   1.03433532   1.51461458 
C    1.15712529   2.10907614   1.18834942 
C    1.13041604   3.23844301   2.17340782 
H    1.00525514   4.19004664   1.66149131 
H    2.08934843   3.27696414   2.69301601 
H    0.34595719   3.10499226   2.91262351 
H    3.18486096  -1.85324114   1.32571890 
H    1.98463895  -2.92726722  -0.86223093 
*
