39
Coordinates from ORCA-job reaction4-IEIP_ts_guess_scan_5-2_orca E -1288.399807824739
  Ir      0.602223     -0.708567      0.421129
  C       0.054223     -2.795933      0.324681
  C       0.137503     -2.342320      1.690907
  C       2.219064     -2.114727      0.730555
  C       1.316919     -2.633008     -0.273185
  C       1.502046     -1.973154      1.932434
  N      -1.053269      0.174979     -0.528751
  C      -2.317885      0.499993      0.148374
  C      -3.130640      1.569132     -0.563732
  H      -3.955246      1.871343      0.080432
  H      -3.577878      1.215507     -1.494193
  H      -2.539529      2.461314     -0.772719
  C      -3.125022     -0.775278      0.358979
  H      -2.017097      0.886659      1.123364
  H      -4.032896     -0.544642      0.914261
  H      -3.420316     -1.219410     -0.592531
  H      -2.574405     -1.518400      0.934048
  C      -0.858357      0.381839     -1.771336
  C       0.493982      0.145486     -2.225159
  H      -1.634754      0.746243     -2.437745
  C       1.582229      0.456943     -1.415392
  C       2.796290      0.034095     -2.032337
  S       0.942801     -0.613269     -3.682830
  C       2.603141     -0.551644     -3.243334
  H       1.512089      1.348928     -0.661296
  H       3.775482      0.209542     -1.610895
  H       3.349445     -0.932512     -3.924134
  H      -0.835070     -3.163764     -0.166760
  H      -0.649520     -2.375103      2.429852
  H       1.889622     -1.573002      2.858352
  O       1.293634      2.486695      0.245824
  O       0.539990      0.917525      1.641035
  C       0.901176      2.124667      1.350727
  C       0.839170      3.084981      2.506269
  H       0.791541      4.110656      2.150774
  H       1.745593      2.980512      3.105818
  H      -0.005100      2.877378      3.160558
  H       3.264317     -1.886049      0.585230
  H       1.573874     -2.864445     -1.296535
39
Coordinates from ORCA-job reaction4-IEIP_ts_guess_scan_5-2_orca E -1288.398752580993
  Ir      0.606345     -0.695591      0.413010
  C       0.073244     -2.787615      0.299238
  C       0.146159     -2.345459      1.669515
  C       2.230903     -2.094120      0.721947
  C       1.337942     -2.611167     -0.290508
  C       1.506145     -1.966939      1.920882
  N      -1.059194      0.181766     -0.533374
  C      -2.320227      0.511704      0.146836
  C      -3.138698      1.570200     -0.574488
  H      -3.961270      1.878286      0.069484
  H      -3.588883      1.204083     -1.498699
  H      -2.550654      2.461164     -0.796933
  C      -3.122703     -0.763092      0.376843
  H      -2.014922      0.910513      1.115524
  H      -4.027921     -0.528402      0.934736
  H      -3.422314     -1.218969     -0.567724
  H      -2.566529     -1.497976      0.957199
  C      -0.871891      0.372458     -1.780696
  C       0.479997      0.131529     -2.233459
  H      -1.652118      0.723958     -2.449513
  C       1.565372      0.474438     -1.431694
  C       2.780454      0.030193     -2.033203
  S       0.930886     -0.678111     -3.662384
  C       2.589850     -0.602658     -3.220346
  H       1.498046      1.422667     -0.739181
  H       3.759380      0.227979     -1.621232
  H       3.337871     -1.005786     -3.886174
  H      -0.810622     -3.158282     -0.199768
  H      -0.644174     -2.390915      2.404167
  H       1.885737     -1.571389      2.852055
  O       1.392440      2.457824      0.301204
  O       0.518843      0.916738      1.649860
  C       0.927956      2.112410      1.383931
  C       0.830186      3.076228      2.533923
  H       0.832309      4.102299      2.176282
  H       1.698574      2.946387      3.182737
  H      -0.054749      2.894380      3.140268
  H       3.275429     -1.857799      0.584410
  H       1.602171     -2.833744     -1.313936
39
Coordinates from ORCA-job reaction4-IEIP_ts_guess_scan_5-2_orca E -1288.399895155796
  Ir      0.608405     -0.711695      0.424036
  C       0.056019     -2.800476      0.329016
  C       0.134044     -2.348633      1.695721
  C       2.220221     -2.122497      0.743959
  C       1.321924     -2.639994     -0.263448
  C       1.497223     -1.979416      1.942487
  N      -1.048784      0.176097     -0.526237
  C      -2.311859      0.501657      0.151498
  C      -3.122373      1.572161     -0.561035
  H      -3.947752      1.874949      0.081846
  H      -3.568122      1.219360     -1.492565
  H      -2.529962      2.463823     -0.768638
  C      -3.119687     -0.773323      0.360595
  H      -2.010196      0.886689      1.126871
  H      -4.026878     -0.542965      0.917072
  H      -3.416080     -1.215639     -0.591405
  H      -2.568682     -1.517626      0.933872
  C      -0.855123      0.390443     -1.770018
  C       0.496466      0.155531     -2.231970
  H      -1.632519      0.762149     -2.431136
  C       1.587916      0.447210     -1.416923
  C       2.797416      0.024617     -2.046003
  S       0.936146     -0.592410     -3.697505
  C       2.597845     -0.546710     -3.261934
  H       1.535660      1.361700     -0.676103
  H       3.779388      0.193662     -1.628510
  H       3.340154     -0.922107     -3.949961
  H      -0.831513     -3.167501     -0.166158
  H      -0.655773     -2.381758      2.431539
  H       1.881027     -1.579779      2.870174
  O       1.264935      2.479593      0.241570
  O       0.535181      0.913888      1.648340
  C       0.887729      2.120880      1.353688
  C       0.825589      3.087366      2.503785
  H       0.766247      4.110610      2.142952
  H       1.737158      2.994346      3.097292
  H      -0.012136      2.875831      3.165021
  H       3.266781     -1.897055      0.604027
  H       1.583336     -2.873785     -1.285071
39
Coordinates from ORCA-job reaction4-IEIP_ts_guess_scan_5-2_orca E -1288.398557554866
  Ir      0.593124     -0.716366      0.431597
  C       0.031409     -2.803249      0.376708
  C       0.110619     -2.325464      1.734142
  C       2.198229     -2.127025      0.779444
  C       1.298190     -2.660198     -0.217928
  C       1.475051     -1.957672      1.974442
  N      -1.060380      0.155290     -0.537684
  C      -2.327996      0.475158      0.135556
  C      -3.144084      1.539608     -0.579785
  H      -3.972575      1.837932      0.061202
  H      -3.586103      1.182814     -1.511529
  H      -2.556968      2.434760     -0.787363
  C      -3.129137     -0.804075      0.345114
  H      -2.031575      0.863635      1.111117
  H      -4.039070     -0.577986      0.898904
  H      -3.420526     -1.249878     -0.606803
  H      -2.575273     -1.544058      0.921070
  C      -0.868218      0.369979     -1.781087
  C       0.484900      0.159724     -2.248379
  H      -1.648405      0.742709     -2.438130
  C       1.571575      0.425796     -1.420356
  C       2.789832      0.069580     -2.072495
  S       0.936769     -0.500549     -3.751279
  C       2.599859     -0.431997     -3.320727
  H       1.489843      1.270449     -0.608708
  H       3.768309      0.229539     -1.643201
  H       3.348282     -0.752200     -4.029820
  H      -0.857536     -3.175604     -0.111915
  H      -0.679884     -2.340346      2.469808
  H       1.860030     -1.541618      2.894401
  O       1.500835      2.436629      0.288513
  O       0.529815      0.934548      1.625470
  C       0.983633      2.114216      1.355305
  C       0.884767      3.091598      2.493374
  H       0.933854      4.113517      2.127396
  H       1.727678      2.937765      3.169966
  H      -0.024346      2.946188      3.073257
  H       3.245928     -1.908978      0.635835
  H       1.558914     -2.914980     -1.234693
39
Coordinates from ORCA-job reaction4-IEIP_ts_guess_scan_5-2_orca E -1288.399973063964
  Ir      0.601365     -0.706651      0.426688
  C       0.051305     -2.795953      0.343451
  C       0.125707     -2.336274      1.707372
  C       2.213678     -2.113162      0.758473
  C       1.318269     -2.637580     -0.247629
  C       1.487585     -1.963750      1.954536
  N      -1.053166      0.172103     -0.529484
  C      -2.320595      0.488401      0.145784
  C      -3.136151      1.557588     -0.563127
  H      -3.964548      1.852393      0.079599
  H      -3.578264      1.206657     -1.497056
  H      -2.548732      2.453782     -0.765282
  C      -3.122815     -0.791424      0.347608
  H      -2.023856      0.870832      1.123695
  H      -4.032625     -0.567940      0.902669
  H      -3.414495     -1.231276     -0.606987
  H      -2.569622     -1.535264      0.919165
  C      -0.858525      0.392203     -1.771912
  C       0.491916      0.163833     -2.238909
  H      -1.637624      0.763625     -2.430969
  C       1.585339      0.437749     -1.420953
  C       2.793310      0.022376     -2.056747
  S       0.929582     -0.547113     -3.722756
  C       2.591483     -0.520738     -3.285264
  H       1.537105      1.334858     -0.659384
  H       3.775552      0.174216     -1.633215
  H       3.332033     -0.886922     -3.980115
  H      -0.834774     -3.166714     -0.151515
  H      -0.665743     -2.365656      2.441558
  H       1.868839     -1.557902      2.880577
  O       1.363683      2.467059      0.264276
  O       0.525326      0.926467      1.640454
  C       0.925857      2.121615      1.358662
  C       0.849622      3.090992      2.505311
  H       0.838674      4.115197      2.142620
  H       1.732955      2.968551      3.135062
  H      -0.020684      2.907813      3.132066
  H       3.260408     -1.887599      0.619702
  H       1.581993     -2.877201     -1.267284
39
Coordinates from ORCA-job reaction4-IEIP_ts_guess_scan_5-2_orca E -1288.399976735534
  Ir      0.605688     -0.712265      0.427436
  C       0.050678     -2.800460      0.342897
  C       0.123583     -2.341891      1.707125
  C       2.213892     -2.123130      0.762152
  C       1.319033     -2.644821     -0.245922
  C       1.485756     -1.972289      1.956798
  N      -1.049335      0.171461     -0.530027
  C      -2.315057      0.492306      0.146367
  C      -3.127906      1.563950     -0.561926
  H      -3.954622      1.861538      0.081671
  H      -3.572208      1.214275     -1.495273
  H      -2.537911      2.458254     -0.764893
  C      -3.121629     -0.784591      0.349462
  H      -2.016029      0.874263      1.123798
  H      -4.030220     -0.557538      0.905051
  H      -3.415552     -1.223912     -0.604679
  H      -2.570693     -1.530063      0.920985
  C      -0.857597      0.385444     -1.773981
  C       0.492161      0.157328     -2.239358
  H      -1.637657      0.753601     -2.433809
  C       1.581970      0.439017     -1.420011
  C       2.793323      0.033019     -2.055202
  S       0.933249     -0.572051     -3.712887
  C       2.596083     -0.514757     -3.282666
  H       1.528239      1.348953     -0.672073
  H       3.774444      0.199072     -1.634440
  H       3.339881     -0.872599     -3.978384
  H      -0.835281     -3.168938     -0.153990
  H      -0.669288     -2.369917      2.439822
  H       1.866242     -1.567714      2.883711
  O       1.313730      2.476309      0.248880
  O       0.531436      0.921145      1.642592
  C       0.907427      2.122151      1.352868
  C       0.848071      3.088205      2.503204
  H       0.813712      4.112913      2.143427
  H       1.749186      2.976493      3.109345
  H      -0.002948      2.891776      3.152052
  H       3.261557     -1.900523      0.625773
  H       1.583964     -2.884825     -1.265156
39
Coordinates from ORCA-job reaction4-IEIP_ts_guess_scan_5-2_orca E -1288.400006665874
  Ir      0.605272     -0.711264      0.427288
  C       0.052113     -2.799620      0.342414
  C       0.124185     -2.341251      1.706670
  C       2.214619     -2.120453      0.762241
  C       1.320521     -2.642805     -0.246105
  C       1.485879     -1.970396      1.956694
  N      -1.049497      0.170543     -0.529861
  C      -2.315193      0.490457      0.147142
  C      -3.127732      1.563705     -0.559078
  H      -3.954191      1.860454      0.085240
  H      -3.572398      1.215935     -1.492959
  H      -2.537388      2.458118     -0.760538
  C      -3.122312     -0.786495      0.347928
  H      -2.016110      0.870586      1.125251
  H      -4.030863     -0.560050      0.903830
  H      -3.416320     -1.224013     -0.607017
  H      -2.571760     -1.533229      0.918171
  C      -0.858392      0.385763     -1.773647
  C       0.491265      0.159946     -2.240657
  H      -1.639083      0.754636     -2.432336
  C       1.581510      0.438688     -1.421009
  C       2.792510      0.029270     -2.054519
  S       0.933320     -0.554272     -3.721123
  C       2.594651     -0.518271     -3.282071
  H       1.528230      1.345132     -0.668916
  H       3.773428      0.187132     -1.630157
  H       3.337781     -0.881942     -3.975492
  H      -0.833377     -3.168729     -0.154854
  H      -0.668942     -2.369859      2.439053
  H       1.865711     -1.565475      2.883729
  O       1.321439      2.475757      0.249793
  O       0.531258      0.922290      1.641404
  C       0.911136      2.122215      1.352596
  C       0.846981      3.089650      2.501537
  H       0.814664      4.113986      2.140525
  H       1.745380      2.978163      3.111746
  H      -0.006981      2.894298      3.146858
  H       3.262166     -1.896985      0.626286
  H       1.585890     -2.882423     -1.265321
39
Coordinates from ORCA-job reaction4-IEIP_ts_guess_scan_5-2_orca E -1288.400015069315
  Ir      0.603851     -0.710230      0.429494
  C       0.052836     -2.798808      0.342976
  C       0.122697     -2.341157      1.707537
  C       2.214189     -2.117698      0.765813
  C       1.321908     -2.640483     -0.243883
  C       1.483620     -1.968957      1.959410
  N      -1.049548      0.169704     -0.528469
  C      -2.315805      0.488585      0.148005
  C      -3.127213      1.563560     -0.556929
  H      -3.954003      1.859597      0.087299
  H      -3.571367      1.217756     -1.491780
  H      -2.536153      2.457963     -0.756333
  C      -3.123548     -0.788507      0.345500
  H      -2.017592      0.866728      1.127115
  H      -4.032564     -0.562899      0.900982
  H      -3.416756     -1.224028     -0.610607
  H      -2.573760     -1.536609      0.914741
  C      -0.858296      0.385523     -1.772201
  C       0.490885      0.159095     -2.240984
  H      -1.639602      0.753812     -2.430494
  C       1.582516      0.433569     -1.421335
  C       2.792680      0.026065     -2.057610
  S       0.931211     -0.550251     -3.724198
  C       2.593363     -0.513685     -3.288387
  H       1.530406      1.337687     -0.665971
  H       3.774079      0.181169     -1.633397
  H       3.335591     -0.873370     -3.984852
  H      -0.831640     -3.168469     -0.155700
  H      -0.671422     -2.370678      2.438796
  H       1.861825     -1.563974      2.887090
  O       1.332089      2.470350      0.252095
  O       0.529266      0.923207      1.642599
  C       0.914494      2.121110      1.353567
  C       0.847658      3.091618      2.499857
  H       0.820482      4.115174      2.136240
  H       1.742639      2.978709      3.114824
  H      -0.010138      2.900602      3.141381
  H       3.261732     -1.893249      0.631441
  H       1.588761     -2.879342     -1.262893
39
Coordinates from ORCA-job reaction4-IEIP_ts_guess_scan_5-2_orca E -1288.400021870192
  Ir      0.604326     -0.710823      0.430797
  C       0.053250     -2.799350      0.343614
  C       0.121435     -2.341938      1.708307
  C       2.214199     -2.118390      0.769186
  C       1.323083     -2.641075     -0.241643
  C       1.482010     -1.969664      1.961838
  N      -1.049076      0.168964     -0.528187
  C      -2.315539      0.487061      0.148419
  C      -3.125686      1.564607     -0.554108
  H      -3.952388      1.859842      0.090609
  H      -3.569915      1.221621     -1.489949
  H      -2.533620      2.458869     -0.751102
  C      -3.124343     -0.789966      0.341972
  H      -2.017713      0.862399      1.128707
  H      -4.033508     -0.565216      0.897556
  H      -3.417296     -1.222657     -0.615495
  H      -2.575393     -1.540067      0.909411
  C      -0.858774      0.384477     -1.772210
  C       0.489941      0.159151     -2.242067
  H      -1.641039      0.751585     -2.430021
  C       1.581286      0.432024     -1.421520
  C       2.791750      0.026250     -2.058027
  S       0.930892     -0.547179     -3.726386
  C       2.592830     -0.511223     -3.289967
  H       1.528553      1.337127     -0.666824
  H       3.772974      0.180613     -1.633175
  H       3.335296     -0.869292     -3.987008
  H      -0.830574     -3.168926     -0.156296
  H      -0.673658     -2.371366      2.438508
  H       1.859070     -1.564700      2.889998
  O       1.328998      2.470777      0.249755
  O       0.530838      0.923941      1.643355
  C       0.913872      2.121960      1.352389
  C       0.849523      3.093408      2.498015
  H       0.820149      4.116624      2.133640
  H       1.746553      2.981943      3.110264
  H      -0.006047      2.901994      3.142384
  H       3.262008     -1.894284      0.636350
  H       1.591105     -2.879930     -1.260349
39
Coordinates from ORCA-job reaction4-IEIP_ts_guess_scan_5-2_orca E -1288.400033416469
  Ir      0.605481     -0.712061      0.434237
  C       0.055540     -2.800616      0.343696
  C       0.118204     -2.344447      1.709009
  C       2.214713     -2.118944      0.778179
  C       1.327595     -2.641303     -0.236427
  C       1.477483     -1.971397      1.967987
  N      -1.047148      0.166703     -0.526595
  C      -2.313641      0.483657      0.150886
  C      -3.119559      1.569126     -0.544446
  H      -3.945353      1.863023      0.102060
  H      -3.564844      1.234412     -1.482737
  H      -2.523792      2.462266     -0.735102
  C      -3.126363     -0.792489      0.333689
  H      -2.016152      0.850779      1.134361
  H      -4.035486     -0.569535      0.890077
  H      -3.419427     -1.216915     -0.627432
  H      -2.580018     -1.548622      0.895634
  C      -0.859637      0.380800     -1.771426
  C       0.487681      0.157852     -2.244388
  H      -1.644473      0.745043     -2.427772
  C       1.578960      0.426747     -1.422397
  C       2.789697      0.025388     -2.060355
  S       0.929285     -0.540596     -3.731910
  C       2.590890     -0.506405     -3.295048
  H       1.525045      1.333926     -0.668842
  H       3.770815      0.177846     -1.634636
  H       3.333441     -0.860542     -3.994013
  H      -0.825991     -3.170276     -0.160194
  H      -0.679905     -2.374414      2.435885
  H       1.850711     -1.566755      2.897849
  O       1.322690      2.470121      0.243964
  O       0.534120      0.924640      1.644782
  C       0.913558      2.122450      1.349441
  C       0.849881      3.097663      2.491836
  H       0.813937      4.119445      2.124075
  H       1.750457      2.992516      3.099986
  H      -0.001591      2.904383      3.141051
  H       3.263148     -1.895029      0.650118
  H       1.599418     -2.879247     -1.254345
39
Coordinates from ORCA-job reaction4-IEIP_ts_guess_scan_5-2_orca E -1288.400034957505
  Ir      0.605353     -0.711616      0.435464
  C       0.057243     -2.800613      0.343322
  C       0.116966     -2.344699      1.708881
  C       2.215112     -2.117198      0.782105
  C       1.330251     -2.640048     -0.234249
  C       1.475432     -1.970624      1.970547
  N      -1.047112      0.165762     -0.525853
  C      -2.313857      0.481691      0.151774
  C      -3.117967      1.570465     -0.540519
  H      -3.943628      1.863573      0.106516
  H      -3.563311      1.239271     -1.480015
  H      -2.520657      2.463187     -0.728204
  C      -3.127862     -0.794395      0.329386
  H      -2.016899      0.845061      1.136786
  H      -4.037113     -0.572807      0.886122
  H      -3.420710     -1.215008     -0.633475
  H      -2.582361     -1.553104      0.888684
  C      -0.860399      0.379593     -1.770882
  C       0.486548      0.157529     -2.244914
  H      -1.646147      0.742826     -2.426716
  C       1.578231      0.424954     -1.422855
  C       2.788671      0.023973     -2.061352
  S       0.927920     -0.537888     -3.733900
  C       2.589408     -0.505711     -3.296950
  H       1.524620      1.332120     -0.668920
  H       3.769935      0.175041     -1.635481
  H       3.331666     -0.859247     -3.996539
  H      -0.822940     -3.170995     -0.162382
  H      -0.682560     -2.375363      2.434170
  H       1.846558     -1.565895      2.901215
  O       1.322745      2.469539      0.242467
  O       0.533842      0.925730      1.644861
  C       0.912084      2.123483      1.347914
  C       0.851704      3.099220      2.490031
  H       0.816027      4.120852      2.121839
  H       1.753444      2.993539      3.096381
  H       0.001380      2.907016      3.141042
  H       3.263676     -1.892661      0.656223
  H       1.604079     -2.877359     -1.251783
39
Coordinates from ORCA-job reaction4-IEIP_ts_guess_scan_5-2_orca E -1288.400035694850
  Ir      0.605556     -0.711489      0.435384
  C       0.057760     -2.800726      0.343173
  C       0.116846     -2.344470      1.708700
  C       2.215371     -2.116892      0.782866
  C       1.330982     -2.640038     -0.233757
  C       1.475180     -1.970324      1.970981
  N      -1.047291      0.165708     -0.525513
  C      -2.314107      0.481114      0.152231
  C      -3.117567      1.571075     -0.538937
  H      -3.943266      1.863825      0.108207
  H      -3.562780      1.241132     -1.478931
  H      -2.519707      2.463672     -0.725450
  C      -3.128420     -0.795072      0.327800
  H      -2.017361      0.842984      1.137844
  H      -4.037651     -0.574249      0.884875
  H      -3.421306     -1.214115     -0.635735
  H      -2.582991     -1.554764      0.885846
  C      -0.860695      0.379735     -1.770540
  C       0.486261      0.157597     -2.244674
  H      -1.646533      0.743048     -2.426234
  C       1.578303      0.425020     -1.423040
  C       2.788390      0.023476     -2.061893
  S       0.927004     -0.538521     -3.733614
  C       2.588615     -0.506313     -3.297348
  H       1.525309      1.331879     -0.668842
  H       3.769871      0.174555     -1.636522
  H       3.330586     -0.860125     -3.997101
  H      -0.822116     -3.171441     -0.162813
  H      -0.682983     -2.375162      2.433657
  H       1.845842     -1.565484      2.901785
  O       1.325374      2.469490      0.242733
  O       0.534222      0.926262      1.644457
  C       0.913832      2.123749      1.347895
  C       0.851357      3.099880      2.489555
  H       0.815744      4.121347      2.120880
  H       1.752309      2.994882      3.097182
  H       0.000200      2.907557      3.139435
  H       3.263967     -1.892285      0.657378
  H       1.605263     -2.877326     -1.251181
