39
Coordinates from ORCA-job reaction4-IEIP_ts_guess_scan_9-8_orca E -1288.401272306438
  Ir      0.617288     -0.718063      0.440013
  C       0.122886     -2.825015      0.324550
  C      -0.007091     -2.368551      1.683761
  C       2.193975     -2.083316      1.033150
  C       1.461855     -2.642979     -0.076058
  C       1.286770     -1.945746      2.109938
  N      -1.053228      0.131517     -0.513683
  C      -2.323369      0.376709      0.188431
  C      -3.107915      1.558511     -0.362902
  H      -3.933589      1.779025      0.312174
  H      -3.550739      1.355702     -1.338932
  H      -2.495334      2.457468     -0.434433
  C      -3.157692     -0.899325      0.185891
  H      -2.037125      0.606715      1.215591
  H      -4.061570     -0.751278      0.775267
  H      -3.460467     -1.170071     -0.826448
  H      -2.619059     -1.741010      0.618528
  C      -0.900175      0.409987     -1.749108
  C       0.424234      0.224391     -2.260056
  H      -1.708402      0.796613     -2.362564
  C       1.494898      0.209109     -1.369189
  C       2.701444     -0.094372     -2.067706
  S       0.874407     -0.101074     -3.865277
  C       2.514806     -0.280053     -3.403167
  H       1.557108      1.186003     -0.587622
  H       3.677006     -0.115803     -1.604127
  H       3.261436     -0.490160     -4.153945
  H      -0.669078     -3.230345     -0.288432
  H      -0.892912     -2.416200      2.299061
  H       1.518629     -1.518398      3.075327
  O       1.576728      2.355464      0.155467
  O       0.550352      0.988379      1.580260
  C       1.045916      2.120469      1.250383
  C       0.988762      3.193465      2.298787
  H       0.945528      4.178376      1.841099
  H       1.900206      3.148870      2.897875
  H       0.145118      3.054015      2.970154
  H       3.248918     -1.857224      1.056247
  H       1.868847     -2.882615     -1.047565
39
Coordinates from ORCA-job reaction4-IEIP_ts_guess_scan_9-8_orca E -1288.401180805114
  Ir      0.614959     -0.710009      0.435173
  C       0.126863     -2.820811      0.324340
  C      -0.003904     -2.364714      1.683495
  C       2.195064     -2.071343      1.031918
  C       1.465073     -2.635050     -0.076535
  C       1.287337     -1.936021      2.108263
  N      -1.061763      0.130878     -0.516529
  C      -2.331521      0.375593      0.186605
  C      -3.119656      1.553176     -0.368654
  H      -3.945376      1.774061      0.306210
  H      -3.562633      1.345364     -1.343572
  H      -2.509614      2.453560     -0.444189
  C      -3.162681     -0.902455      0.190051
  H      -2.044764      0.610360      1.212559
  H      -4.066276     -0.754418      0.779855
  H      -3.465957     -1.177890     -0.820888
  H      -2.621475     -1.741113      0.625329
  C      -0.908449      0.403992     -1.757971
  C       0.419236      0.220218     -2.271753
  H      -1.718234      0.785392     -2.372610
  C       1.488871      0.210373     -1.379279
  C       2.697096     -0.094234     -2.074792
  S       0.872284     -0.110675     -3.875000
  C       2.512511     -0.286473     -3.409582
  H       1.553398      1.212260     -0.617118
  H       3.672327     -0.110407     -1.610121
  H       3.260643     -0.498822     -4.158135
  H      -0.663694     -3.229924     -0.287988
  H      -0.889052     -2.415574      2.299405
  H       1.517768     -1.507288      3.073377
  O       1.664545      2.322603      0.204459
  O       0.534963      0.996008      1.581302
  C       1.073666      2.112975      1.273820
  C       0.996788      3.193308      2.313045
  H       1.003026      4.176418      1.849424
  H       1.877089      3.126905      2.955145
  H       0.118527      3.081092      2.943774
  H       3.249422     -1.842630      1.055378
  H       1.872964     -2.875494     -1.047473
39
Coordinates from ORCA-job reaction4-IEIP_ts_guess_scan_9-8_orca E -1288.400518634649
  Ir      0.625238     -0.716188      0.435584
  C       0.126869     -2.828496      0.320198
  C      -0.000393     -2.381165      1.682451
  C       2.197325     -2.090335      1.029614
  C       1.465412     -2.646499     -0.081022
  C       1.290055     -1.957309      2.106533
  N      -1.051560      0.137032     -0.504492
  C      -2.320012      0.382830      0.200288
  C      -3.100809      1.569197     -0.346653
  H      -3.926629      1.788875      0.328422
  H      -3.542839      1.371631     -1.324158
  H      -2.486011      2.467054     -0.413733
  C      -3.158355     -0.890419      0.192153
  H      -2.033030      0.607346      1.228477
  H      -4.061734     -0.742422      0.782286
  H      -3.462211     -1.155549     -0.821390
  H      -2.622300     -1.735757      0.620802
  C      -0.890078      0.423049     -1.751888
  C       0.442343      0.234553     -2.274420
  H      -1.697220      0.815295     -2.363082
  C       1.510465      0.192469     -1.379292
  C       2.714363     -0.130724     -2.074990
  S       0.893859     -0.086230     -3.879979
  C       2.529352     -0.303982     -3.412106
  H       1.615080      1.222686     -0.631957
  H       3.688277     -0.169968     -1.608586
  H       3.275119     -0.524044     -4.160628
  H      -0.665446     -3.232509     -0.293315
  H      -0.884563     -2.433087      2.299443
  H       1.522545     -1.534798      3.073881
  O       1.469420      2.366178      0.137078
  O       0.540414      0.986739      1.601084
  C       0.997273      2.127611      1.259238
  C       0.958703      3.203874      2.303808
  H       0.870105      4.185306      1.844895
  H       1.896328      3.185481      2.862448
  H       0.148924      3.045438      3.011321
  H       3.252932     -1.867811      1.055082
  H       1.872157     -2.886160     -1.052653
39
Coordinates from ORCA-job reaction4-IEIP_ts_guess_scan_9-8_orca E -1288.401558478582
  Ir      0.616364     -0.718528      0.438989
  C       0.116259     -2.827810      0.334804
  C      -0.009252     -2.371079      1.694015
  C       2.189197     -2.087668      1.036818
  C       1.454721     -2.649354     -0.069483
  C       1.283637     -1.946803      2.114652
  N      -1.056685      0.129868     -0.510471
  C      -2.327400      0.371872      0.190263
  C      -3.111996      1.553891     -0.360527
  H      -3.940051      1.771651      0.312515
  H      -3.551326      1.352513     -1.338449
  H      -2.500558      2.453923     -0.428239
  C      -3.160087     -0.905185      0.183122
  H      -2.043034      0.599568      1.218403
  H      -4.065125     -0.759839      0.771398
  H      -3.460877     -1.173724     -0.830391
  H      -2.620988     -1.747223      0.614520
  C      -0.899752      0.414061     -1.750708
  C       0.428972      0.233922     -2.268023
  H      -1.708449      0.803379     -2.361648
  C       1.497104      0.198841     -1.373686
  C       2.705628     -0.101379     -2.071386
  S       0.883392     -0.074419     -3.874982
  C       2.522954     -0.264719     -3.410289
  H       1.572296      1.198149     -0.598444
  H       3.679632     -0.132016     -1.604868
  H       3.271532     -0.466180     -4.161454
  H      -0.677502     -3.233954     -0.275337
  H      -0.893250     -2.417139      2.311872
  H       1.517914     -1.517956      3.078778
  O       1.573257      2.364788      0.149324
  O       0.551976      0.993428      1.578077
  C       1.047217      2.124904      1.247644
  C       0.995297      3.197179      2.295838
  H       0.947514      4.182288      1.838961
  H       1.910581      3.153793      2.889081
  H       0.155908      3.055393      2.971842
  H       3.244867     -1.865061      1.058819
  H       1.859482     -2.894185     -1.040611
39
Coordinates from ORCA-job reaction4-IEIP_ts_guess_scan_9-8_orca E -1288.401617902930
  Ir      0.617042     -0.717485      0.438808
  C       0.117293     -2.826606      0.336297
  C      -0.009328     -2.369839      1.695185
  C       2.189529     -2.085950      1.039460
  C       1.456153     -2.648349     -0.067021
  C       1.282962     -1.944862      2.116391
  N      -1.055983      0.129444     -0.512016
  C      -2.326700      0.371340      0.188937
  C      -3.112490      1.552727     -0.361600
  H      -3.940157      1.770247      0.311985
  H      -3.552510      1.350740     -1.339062
  H      -2.501618      2.453085     -0.430097
  C      -3.159084     -0.905978      0.183315
  H      -2.041873      0.599749      1.216889
  H      -4.063950     -0.760426      0.771835
  H      -3.460155     -1.175431     -0.829864
  H      -2.619578     -1.747454      0.615218
  C      -0.900157      0.413698     -1.751471
  C       0.426997      0.233669     -2.270127
  H      -1.709535      0.802937     -2.361474
  C       1.495411      0.196627     -1.376661
  C       2.703175     -0.102183     -2.075726
  S       0.880943     -0.064007     -3.879123
  C       2.519190     -0.264442     -3.414646
  H       1.572370      1.202439     -0.609855
  H       3.677278     -0.135995     -1.609745
  H       3.266845     -0.466808     -4.166465
  H      -0.675843     -3.233169     -0.274356
  H      -0.893886     -2.415568      2.312267
  H       1.516422     -1.515394      3.080449
  O       1.596140      2.352727      0.162464
  O       0.548279      0.993688      1.578814
  C       1.051614      2.121662      1.253423
  C       0.993599      3.197406      2.298180
  H       0.957908      4.181613      1.838253
  H       1.901179      3.149797      2.902878
  H       0.144991      3.062923      2.964121
  H       3.245197     -1.863431      1.062490
  H       1.861699     -2.893949     -1.037612
39
Coordinates from ORCA-job reaction4-IEIP_ts_guess_scan_9-8_orca E -1288.401647700639
  Ir      0.616998     -0.719752      0.440145
  C       0.113882     -2.828062      0.341369
  C      -0.011876     -2.370228      1.699865
  C       2.187222     -2.089849      1.043237
  C       1.453055     -2.652395     -0.062510
  C       1.280754     -1.946258      2.120066
  N      -1.055275      0.128783     -0.511631
  C      -2.326737      0.368914      0.188865
  C      -3.113108      1.550809     -0.359823
  H      -3.941150      1.766528      0.313848
  H      -3.552703      1.350305     -1.337785
  H      -2.502827      2.451718     -0.426472
  C      -3.158707     -0.908698      0.180695
  H      -2.042744      0.595686      1.217439
  H      -4.064135     -0.764339      0.768639
  H      -3.458791     -1.176745     -0.833157
  H      -2.619305     -1.750604      0.611827
  C      -0.898844      0.416449     -1.750472
  C       0.427707      0.236869     -2.270537
  H      -1.708325      0.807208     -2.359391
  C       1.495647      0.190970     -1.376892
  C       2.703492     -0.103553     -2.077585
  S       0.881651     -0.051189     -3.881163
  C       2.520438     -0.250974     -3.418399
  H       1.575929      1.199484     -0.610951
  H       3.677291     -0.142358     -1.611384
  H       3.268505     -0.445521     -4.171869
  H      -0.679863     -3.234187     -0.268792
  H      -0.896485     -2.413777      2.317009
  H       1.514986     -1.515884      3.083537
  O       1.600897      2.350517      0.160219
  O       0.551310      0.994147      1.577738
  C       1.057012      2.120433      1.252034
  C       0.995375      3.199807      2.292898
  H       0.958272      4.182387      1.829594
  H       1.902306      3.156088      2.898817
  H       0.146166      3.065868      2.958190
  H       3.243286     -1.869266      1.066294
  H       1.858063     -2.900139     -1.032772
39
Coordinates from ORCA-job reaction4-IEIP_ts_guess_scan_9-8_orca E -1288.401703215852
  Ir      0.615525     -0.726184      0.444142
  C       0.104204     -2.832073      0.357574
  C      -0.020583     -2.370136      1.714476
  C       2.179679     -2.099002      1.056879
  C       1.444570     -2.663340     -0.046931
  C       1.272438     -1.947815      2.132535
  N      -1.053881      0.125359     -0.511329
  C      -2.327614      0.359490      0.187608
  C      -3.116183      1.542322     -0.356029
  H      -3.945540      1.752361      0.317732
  H      -3.554237      1.345803     -1.335517
  H      -2.508134      2.445151     -0.417277
  C      -3.157484     -0.919487      0.171579
  H      -2.046468      0.581710      1.218035
  H      -4.065025     -0.779065      0.757193
  H      -3.453839     -1.183731     -0.844384
  H      -2.618201     -1.762302      0.600923
  C      -0.895606      0.425152     -1.747492
  C       0.429578      0.250220     -2.271157
  H      -1.705188      0.822110     -2.352318
  C       1.495607      0.174682     -1.377110
  C       2.703727     -0.106050     -2.082940
  S       0.886278      0.008591     -3.888234
  C       2.522791     -0.213034     -3.428034
  H       1.586012      1.188513     -0.610211
  H       3.676109     -0.165246     -1.615974
  H       3.271277     -0.390115     -4.185383
  H      -0.690440     -3.237963     -0.251594
  H      -0.905895     -2.407274      2.330964
  H       1.507828     -1.513694      3.094054
  O       1.609383      2.347702      0.148695
  O       0.557716      0.996970      1.571534
  C       1.063887      2.120517      1.241501
  C       1.006852      3.205280      2.277176
  H       0.966746      4.185444      1.809073
  H       1.916874      3.165407      2.878677
  H       0.160948      3.074003      2.947159
  H       3.236700     -1.883252      1.080816
  H       1.848960     -2.917832     -1.015671
39
Coordinates from ORCA-job reaction4-IEIP_ts_guess_scan_9-8_orca E -1288.401710846684
  Ir      0.615082     -0.729478      0.445625
  C       0.100346     -2.833787      0.363847
  C      -0.025879     -2.369387      1.719730
  C       2.176037     -2.102962      1.064917
  C       1.441904     -2.668361     -0.038861
  C       1.267095     -1.947964      2.138742
  N      -1.052060      0.123704     -0.511323
  C      -2.325987      0.355708      0.187826
  C      -3.115839      1.538358     -0.354329
  H      -3.945066      1.746767      0.320080
  H      -3.554162      1.342462     -1.333835
  H      -2.508752      2.441880     -0.414887
  C      -3.154844     -0.923893      0.170043
  H      -2.045243      0.577105      1.218568
  H      -4.063288     -0.784436      0.754517
  H      -3.449628     -1.187775     -0.846454
  H      -2.615687     -1.766640      0.599621
  C      -0.894012      0.430018     -1.745459
  C       0.429669      0.257030     -2.271076
  H      -1.703713      0.830924     -2.347420
  C       1.495387      0.165758     -1.378293
  C       2.702688     -0.107984     -2.087929
  S       0.886572      0.042132     -3.891792
  C       2.521558     -0.193840     -3.434670
  H       1.592154      1.180101     -0.609859
  H       3.674675     -0.178934     -1.621830
  H       3.269493     -0.362392     -4.194513
  H      -0.693751     -3.239728     -0.245975
  H      -0.912382     -2.403362      2.334681
  H       1.501793     -1.511817      3.099523
  O       1.624385      2.339406      0.148546
  O       0.557995      0.996858      1.567911
  C       1.070273      2.117249      1.238392
  C       1.007942      3.207130      2.268371
  H       0.970321      4.184849      1.794945
  H       1.914977      3.170328      2.874521
  H       0.158562      3.079359      2.934583
  H       3.233420     -1.889173      1.090551
  H       1.847335     -2.926027     -1.006294
39
Coordinates from ORCA-job reaction4-IEIP_ts_guess_scan_9-8_orca E -1288.401710708205
  Ir      0.614427     -0.730637      0.446256
  C       0.098828     -2.834444      0.367050
  C      -0.029910     -2.367616      1.721980
  C       2.173690     -2.103824      1.071330
  C       1.441457     -2.670555     -0.033011
  C       1.262616     -1.946365      2.143003
  N      -1.051888      0.123305     -0.511637
  C      -2.326240      0.353001      0.187614
  C      -3.118086      1.534595     -0.354021
  H      -3.947323      1.741478      0.320848
  H      -3.556543      1.338251     -1.333378
  H      -2.512509      2.439132     -0.414615
  C      -3.153349     -0.927699      0.168832
  H      -2.046101      0.574507      1.218482
  H      -4.062829     -0.789360      0.751991
  H      -3.446355     -1.192065     -0.848040
  H      -2.613921     -1.769815      0.599199
  C      -0.893644      0.434400     -1.744517
  C       0.429261      0.262051     -2.271108
  H      -1.703255      0.837651     -2.344904
  C       1.495031      0.160173     -1.379684
  C       2.701428     -0.109822     -2.091903
  S       0.885548      0.061411     -3.893956
  C       2.519929     -0.181476     -3.439579
  H       1.597567      1.172944     -0.608131
  H       3.673330     -0.188033     -1.626796
  H       3.267479     -0.344140     -4.201082
  H      -0.694023     -3.241189     -0.243831
  H      -0.917655     -2.400001      2.335230
  H       1.495739     -1.508623      3.103447
  O       1.639070      2.331388      0.151139
  O       0.555750      0.998000      1.565796
  C       1.074121      2.115718      1.236737
  C       1.011941      3.208099      2.263960
  H       0.979267      4.184602      1.787625
  H       1.916864      3.170012      2.873168
  H       0.159811      3.085001      2.927474
  H       3.231146     -1.890626      1.098902
  H       1.848700     -2.930242     -0.999128
39
Coordinates from ORCA-job reaction4-IEIP_ts_guess_scan_9-8_orca E -1288.401707553608
  Ir      0.613815     -0.730540      0.446189
  C       0.098932     -2.834486      0.367948
  C      -0.033717     -2.365034      1.721837
  C       2.171961     -2.102862      1.077416
  C       1.442780     -2.671093     -0.028177
  C       1.257897     -1.943651      2.146237
  N      -1.052330      0.124046     -0.511663
  C      -2.327165      0.350732      0.187851
  C      -3.121881      1.530666     -0.353358
  H      -3.951151      1.735599      0.322063
  H      -3.560484      1.333349     -1.332459
  H      -2.518477      2.436641     -0.414249
  C      -3.151754     -0.931544      0.167971
  H      -2.047709      0.572628      1.218791
  H      -4.062529     -0.794794      0.749520
  H      -3.442556     -1.196655     -0.849329
  H      -2.611794     -1.772743      0.599325
  C      -0.893695      0.440435     -1.743336
  C       0.428669      0.268504     -2.270844
  H      -1.703025      0.846426     -2.342123
  C       1.494897      0.156090     -1.381553
  C       2.699678     -0.112605     -2.096430
  S       0.883652      0.080755     -3.895933
  C       2.516594     -0.174451     -3.444582
  H       1.605549      1.164261     -0.603456
  H       3.671662     -0.198423     -1.632832
  H       3.263013     -0.335164     -4.207601
  H      -0.691871     -3.242606     -0.244633
  H      -0.923005     -2.396821      2.332889
  H       1.488383     -1.504529      3.106689
  O       1.660199      2.320914      0.157708
  O       0.552264      0.999493      1.564161
  C       1.082466      2.112859      1.237874
  C       1.015364      3.209114      2.260392
  H       0.988523      4.183601      1.779471
  H       1.915955      3.171611      2.875958
  H       0.158140      3.090978      2.918148
  H       3.229293     -1.889391      1.107602
  H       1.852830     -2.932121     -0.992742
39
Coordinates from ORCA-job reaction4-IEIP_ts_guess_scan_9-8_orca E -1288.401707298037
  Ir      0.612755     -0.728146      0.445516
  C       0.101117     -2.833291      0.366396
  C      -0.036317     -2.361848      1.719348
  C       2.171149     -2.098419      1.081883
  C       1.445932     -2.668415     -0.025358
  C       1.253696     -1.939276      2.147751
  N      -1.053850      0.125754     -0.511663
  C      -2.329275      0.349635      0.187515
  C      -3.126952      1.527264     -0.354460
  H      -3.956732      1.730455      0.320836
  H      -3.565003      1.328076     -1.333446
  H      -2.525987      2.434824     -0.415891
  C      -3.150919     -0.934505      0.167149
  H      -2.050713      0.572655      1.218454
  H      -4.062986     -0.799460      0.747092
  H      -3.439509     -1.200817     -0.850467
  H      -2.610066     -1.774455      0.599759
  C      -0.894781      0.445010     -1.742737
  C       0.427311      0.273053     -2.270767
  H      -1.703967      0.852216     -2.340863
  C       1.494195      0.155520     -1.383488
  C       2.697287     -0.115139     -2.099897
  S       0.879839      0.085844     -3.897060
  C       2.512377     -0.174056     -3.448107
  H       1.613003      1.157734     -0.598010
  H       3.669652     -0.203995     -1.637685
  H       3.257766     -0.335523     -4.211970
  H      -0.687077     -3.243451     -0.248150
  H      -0.927077     -2.394852      2.328201
  H       1.480660     -1.499252      3.108626
  O       1.678613      2.312020      0.165876
  O       0.547245      1.001529      1.563531
  C       1.089626      2.110574      1.240876
  C       1.021295      3.208481      2.261342
  H       0.999554      4.182070      1.778222
  H       1.919267      3.169744      2.880599
  H       0.160830      3.094343      2.915472
  H       3.228060     -1.883257      1.114802
  H       1.859355     -2.929454     -0.988487
39
Coordinates from ORCA-job reaction4-IEIP_ts_guess_scan_9-8_orca E -1288.401710075599
  Ir      0.611599     -0.725529      0.445052
  C       0.103753     -2.832228      0.364831
  C      -0.037012     -2.360312      1.717353
  C       2.171146     -2.093549      1.084089
  C       1.448930     -2.665041     -0.024255
  C       1.251385     -1.935840      2.148217
  N      -1.055995      0.126761     -0.511878
  C      -2.332133      0.348936      0.186418
  C      -3.131301      1.525400     -0.355911
  H      -3.961849      1.727204      0.318829
  H      -3.568380      1.325487     -1.335191
  H      -2.531770      2.433939     -0.416825
  C      -3.152107     -0.936290      0.165082
  H      -2.054522      0.572175      1.217590
  H      -4.064885     -0.802644      0.744230
  H      -3.439467     -1.202581     -0.852898
  H      -2.610644     -1.775771      0.597822
  C      -0.896433      0.446018     -1.742983
  C       0.425750      0.274488     -2.271028
  H      -1.705650      0.852864     -2.341367
  C       1.492906      0.157266     -1.384437
  C       2.695290     -0.115868     -2.100979
  S       0.876798      0.082212     -3.897404
  C       2.509429     -0.177300     -3.448997
  H       1.616654      1.155957     -0.594629
  H       3.667971     -0.203769     -1.639260
  H       3.254424     -0.340743     -4.212826
  H      -0.682551     -3.244153     -0.250950
  H      -0.928537     -2.395381      2.324965
  H       1.475638     -1.495448      3.109561
  O       1.688186      2.308825      0.170866
  O       0.544355      1.003906      1.563631
  C       1.094703      2.109977      1.243760
  C       1.028475      3.207739      2.264530
  H       1.007614      4.181442      1.781524
  H       1.927017      3.168095      2.882887
  H       0.168346      3.094667      2.919238
  H       3.227603     -1.876436      1.118716
  H       1.864636     -2.925285     -0.986630
39
Coordinates from ORCA-job reaction4-IEIP_ts_guess_scan_9-8_orca E -1288.401711666400
  Ir      0.610353     -0.723943      0.444963
  C       0.105266     -2.831631      0.364506
  C      -0.037967     -2.359866      1.716787
  C       2.170609     -2.089935      1.086426
  C       1.450751     -2.662738     -0.022662
  C       1.249006     -1.933491      2.149270
  N      -1.057662      0.126743     -0.512262
  C      -2.334319      0.347788      0.185305
  C      -3.134043      1.523985     -0.356726
  H      -3.965187      1.724677      0.317590
  H      -3.570341      1.324312     -1.336407
  H      -2.535163      2.433015     -0.416623
  C      -3.153406     -0.938027      0.162789
  H      -2.057397      0.570547      1.216793
  H      -4.066384     -0.805611      0.741895
  H      -3.440388     -1.203518     -0.855517
  H      -2.611370     -1.777541      0.594795
  C      -0.897873      0.445599     -1.743386
  C       0.424338      0.274991     -2.271494
  H      -1.707317      0.851816     -2.341973
  C       1.491432      0.158228     -1.384937
  C       2.693705     -0.115777     -2.101498
  S       0.874928      0.080643     -3.897795
  C       2.507699     -0.177878     -3.449454
  H       1.618628      1.155867     -0.593654
  H       3.666490     -0.202924     -1.639852
  H       3.252687     -0.341671     -4.213220
  H      -0.679656     -3.244777     -0.252221
  H      -0.930142     -2.396416      2.323343
  H       1.471144     -1.492653      3.110902
  O       1.694623      2.307454      0.173338
  O       0.542779      1.005972      1.562850
  C       1.098433      2.109782      1.245066
  C       1.035083      3.207255      2.266431
  H       1.013062      4.181173      1.783866
  H       1.935430      3.167528      2.882152
  H       0.176695      3.094103      2.923373
  H       3.226736     -1.871462      1.122456
  H       1.868110     -2.922431     -0.984477
39
Coordinates from ORCA-job reaction4-IEIP_ts_guess_scan_9-8_orca E -1288.401712859756
  Ir      0.608908     -0.722967      0.445053
  C       0.107009     -2.831483      0.364310
  C      -0.039386     -2.360332      1.716420
  C       2.169835     -2.086340      1.089869
  C       1.453010     -2.660658     -0.020278
  C       1.245797     -1.931513      2.151037
  N      -1.059482      0.125939     -0.512840
  C      -2.336518      0.346101      0.184228
  C      -3.136016      1.522875     -0.356772
  H      -3.967628      1.722553      0.317260
  H      -3.571662      1.324433     -1.336993
  H      -2.537133      2.431994     -0.415042
  C      -3.155372     -0.939874      0.159915
  H      -2.060146      0.567622      1.216146
  H      -4.068173     -0.808717      0.739578
  H      -3.442619     -1.203633     -0.858774
  H      -2.612871     -1.779978      0.590227
  C      -0.899679      0.444351     -1.743938
  C       0.422582      0.274949     -2.272051
  H      -1.709465      0.849731     -2.342695
  C       1.489540      0.158783     -1.385265
  C       2.692009     -0.115099     -2.101860
  S       0.873246      0.080320     -3.898222
  C       2.506156     -0.177242     -3.449795
  H       1.620166      1.156206     -0.593677
  H       3.664816     -0.201515     -1.640110
  H       3.251271     -0.340621     -4.213527
  H      -0.676166     -3.245883     -0.253794
  H      -0.932589     -2.398418      2.321355
  H       1.465257     -1.490097      3.113023
  O       1.701165      2.306340      0.174981
  O       0.541308      1.008290      1.561171
  C       1.102193      2.109721      1.245582
  C       1.042260      3.207002      2.267485
  H       1.016449      4.180980      1.785180
  H       1.945942      3.168819      2.878403
  H       0.187303      3.092602      2.928630
  H       3.225589     -1.866432      1.127906
  H       1.872465     -2.919620     -0.981387
39
Coordinates from ORCA-job reaction4-IEIP_ts_guess_scan_9-8_orca E -1288.401713196542
  Ir      0.608027     -0.722943      0.445148
  C       0.108322     -2.831702      0.363664
  C      -0.040971     -2.361276      1.715719
  C       2.169085     -2.084406      1.093055
  C       1.454954     -2.659603     -0.018289
  C       1.242777     -1.930808      2.152594
  N      -1.060435      0.125024     -0.513153
  C      -2.337488      0.344796      0.184021
  C      -3.136300      1.522651     -0.355580
  H      -3.967995      1.721778      0.318520
  H      -3.571779      1.325848     -1.336200
  H      -2.536884      2.431503     -0.412398
  C      -3.156674     -0.940940      0.158051
  H      -2.061213      0.564912      1.216259
  H      -4.069002     -0.810658      0.738653
  H      -3.444709     -1.202838     -0.860895
  H      -2.613904     -1.781890      0.586414
  C      -0.900874      0.443336     -1.744213
  C       0.421435      0.274569     -2.272324
  H      -1.710917      0.848194     -2.342988
  C       1.488349      0.158708     -1.385367
  C       2.691031     -0.114536     -2.102067
  S       0.872358      0.080911     -3.898425
  C       2.505371     -0.176223     -3.450017
  H       1.621107      1.156337     -0.594348
  H       3.663809     -0.200701     -1.640197
  H       3.250556     -0.338923     -4.213826
  H      -0.673299     -3.246809     -0.255931
  H      -0.935332     -2.400225      2.318878
  H       1.459898     -1.489066      3.114962
  O       1.705315      2.305560      0.175327
  O       0.540361      1.009694      1.559325
  C       1.104310      2.109727      1.245091
  C       1.046111      3.207128      2.267007
  H       1.014767      4.180803      1.784355
  H       1.953310      3.172337      2.872894
  H       0.194961      3.090459      2.932603
  H       3.224586     -1.863671      1.133166
  H       1.876345     -2.917866     -0.978747
