39
Generated by autodE on: 2023-08-14. E = -1288.400144 Ha
Ir    0.62944  -0.71754   0.42114
C     0.14035  -2.83231   0.31724
C     0.00263  -2.37958   1.67655
C     2.20319  -2.07876   1.03473
C     1.48135  -2.64767  -0.07558
C     1.28721  -1.94515   2.10617
N    -1.05188   0.13255  -0.51453
C    -2.31364   0.38564   0.19798
C    -3.09378   1.57421  -0.34472
H    -3.91437   1.79723   0.33569
H    -3.54297   1.37753  -1.31909
H    -2.47592   2.46957  -0.41618
C    -3.15585  -0.88542   0.19877
H    -2.01668   0.61032   1.22318
H    -4.05139  -0.73442   0.79993
H    -3.47254  -1.14915  -0.81114
H    -2.61667  -1.73229   0.62050
C    -0.90444   0.41245  -1.75575
C     0.41999   0.21536  -2.27487
H    -1.71258   0.80861  -2.36260
C     1.48235   0.16822  -1.36858
C     2.69656  -0.12864  -2.06313
S     0.88387  -0.08659  -3.87605
C     2.52137  -0.28761  -3.40209
H     1.55113   1.16824  -0.65440
H     3.66701  -0.16423  -1.58977
H     3.27258  -0.48910  -4.15054
H    -0.64587  -3.24455  -0.29851
H    -0.88678  -2.42816   2.28636
H     1.51107  -1.51346   3.07149
O     1.52617   2.39203   0.13616
O     0.56161   0.98553   1.56768
C     1.02360   2.13376   1.23616
C     0.95613   3.19285   2.29948
H     0.91009   4.18373   1.85544
H     1.86395   3.14334   2.90362
H     0.10981   3.04028   2.96489
H     3.25815  -1.85432   1.06786
H     1.89511  -2.89332  -1.04272
