39
Generated by autodE on: 2023-08-16. E = -1288.407374 Ha
Ir    0.60784  -0.75142   0.41468
C     0.16424  -2.86237   0.34773
C    -0.14141  -2.42317   1.68679
C     2.10818  -2.05170   1.29698
C     1.55046  -2.66606   0.13044
C     1.05135  -1.93923   2.25344
N    -1.08322   0.09237  -0.50475
C    -2.35957   0.25368   0.20794
C    -3.14632   1.48693  -0.21270
H    -3.98182   1.62198   0.47231
H    -3.57411   1.39876  -1.21227
H    -2.53815   2.39078  -0.17040
C    -3.18792  -1.01686   0.05406
H    -2.08658   0.37147   1.25783
H    -4.09272  -0.94817   0.65678
H    -3.48853  -1.16533  -0.98388
H    -2.64293  -1.90244   0.37727
C    -0.93559   0.48750  -1.71700
C     0.37721   0.33040  -2.26034
H    -1.74832   0.93661  -2.27860
C     1.39337  -0.02212  -1.37453
C     2.61372  -0.20732  -2.09196
S     0.89332   0.46028  -3.87523
C     2.48565   0.02664  -3.43027
H     1.66847   1.21265  -0.68450
H     3.55942  -0.45333  -1.63080
H     3.25826  -0.01971  -4.18279
H    -0.52204  -3.32343  -0.34733
H    -1.09986  -2.48007   2.17942
H     1.14151  -1.48812   3.23142
O     1.79593   2.29808   0.01949
O     0.61891   1.06019   1.44873
C     1.19923   2.12606   1.11601
C     1.20821   3.26178   2.09254
H     1.07839   4.21238   1.57993
H     2.17995   3.29381   2.58843
H     0.44094   3.13734   2.85093
H     3.14757  -1.81743   1.46696
H     2.08631  -2.92223  -0.77200
