39
Generated by autodE on: 2023-08-14. E = -1288.400415 Ha
Ir    0.62135  -0.71583   0.42425
C     0.13277  -2.83093   0.33112
C    -0.01279  -2.37170   1.68744
C     2.19151  -2.07345   1.05599
C     1.47630  -2.64844  -0.05499
C     1.26879  -1.93430   2.12140
N    -1.05836   0.13258  -0.51576
C    -2.32542   0.37061   0.19248
C    -3.11778   1.55117  -0.35017
H    -3.94249   1.76323   0.32867
H    -3.56261   1.35060  -1.32581
H    -2.51057   2.45400  -0.41873
C    -3.15480  -0.90896   0.18644
H    -2.03523   0.59619   1.21954
H    -4.05621  -0.76786   0.78127
H    -3.46157  -1.17456  -0.82604
H    -2.61065  -1.75112   0.61092
C    -0.90678   0.43075  -1.75244
C     0.41660   0.24197  -2.27417
H    -1.71494   0.83305  -2.35519
C     1.47758   0.15604  -1.37069
C     2.68817  -0.13407  -2.07330
S     0.87851  -0.01230  -3.88506
C     2.51215  -0.24676  -3.41742
H     1.58231   1.15238  -0.63508
H     3.65805  -0.19570  -1.60145
H     3.26212  -0.43256  -4.17116
H    -0.64955  -3.24695  -0.28700
H    -0.90503  -2.41849   2.29316
H     1.48692  -1.49697   3.08551
O     1.62098   2.35726   0.15776
O     0.55065   0.99799   1.55877
C     1.06504   2.12561   1.23937
C     0.99486   3.19865   2.28796
H     0.97470   4.18424   1.83013
H     1.89029   3.14243   2.90959
H     0.13295   3.06919   2.93780
H     3.24621  -1.84857   1.09410
H     1.89535  -2.89922  -1.01850
