! Opt PBEh-3c
%geom Constraints
{ B 0 20 2.1714285714285713 C }
{ B 24 30 1.4 C }
    end
end
%output 
xyzfile=True 
end 
%scf 
maxiter 250 
end
%output
Print[P_Hirshfeld] = 1
end
% maxcore
4000
*xyz 1 1
Ir   0.61552068  -0.71918143   0.43878495 
C    0.12253703  -2.82971465   0.33986878 
C   -0.01977056  -2.36775175   1.69591253 
C    2.18518279  -2.08027292   1.06257975 
C    1.46550407  -2.65013623  -0.04878268 
C    1.26616881  -1.93755376   2.12921938 
N   -1.05681207   0.12959819  -0.51298850 
C   -2.32797558   0.36673519   0.18915823 
C   -3.11871931   1.54633303  -0.35811713 
H   -3.94600793   1.75921530   0.31733926 
H   -3.55986746   1.34449236  -1.33514738 
H   -2.51147107   2.44921090  -0.42569676 
C   -3.15668586  -0.91309605   0.18047492 
H   -2.04332745   0.59401399   1.21741053 
H   -4.06188501  -0.77149443   0.76943630 
H   -3.45711819  -1.18070586  -0.83338316 
H   -2.61508572  -1.75441144   0.60986913 
C   -0.90171956   0.42476517  -1.74983355 
C    0.42244860   0.24385896  -2.27372062 
H   -1.71135684   0.82055145  -2.35520840 
C    1.49312917   0.18205705  -1.38347569 
C    2.69834930  -0.10894451  -2.09076562 
S    0.87169242  -0.02749753  -3.88771574 
C    2.51055684  -0.24173423  -3.43227168 
H    1.59030931   1.16836667  -0.61676923 
H    3.67286102  -0.15798569  -1.62713182 
H    3.25512595  -0.43218105  -4.19021951 
H   -0.66243632  -3.24176089  -0.27756881 
H   -0.91094835  -2.41227046   2.30349258 
H    1.48788902  -1.50238882   3.09350537 
O    1.63411209   2.34282549   0.16995300 
O    0.54517913   0.99719231   1.56923751 
C    1.06966704   2.11916545   1.25026371 
C    1.00365789   3.19733919   2.29301506 
H    0.97628775   4.18021631   1.82958390 
H    1.90479281   3.14866934   2.90703044 
H    0.14752280   3.06832875   2.95036344 
H    3.24014831  -1.85594765   1.09704524 
H    1.88191442  -2.89871584  -1.01400766 
*
