! Opt PBEh-3c
%geom Constraints
{ B 0 20 2.4714285714285715 C }
{ B 24 30 1.457142857142857 C }
    end
end
%output 
xyzfile=True 
end 
%scf 
maxiter 250 
end
%output
Print[P_Hirshfeld] = 1
end
% maxcore
4000
*xyz 1 1
Ir   0.58830024  -0.72247386   0.44886536 
C    0.03224985  -2.80369559   0.33430082 
C    0.12343272  -2.35492463   1.70301205 
C    2.20161082  -2.13606348   0.73788810 
C    1.29306687  -2.64242687  -0.26633040 
C    1.49290055  -1.99922388   1.94391074 
N   -1.04388708   0.17987174  -0.52164908 
C   -2.31186262   0.51915425   0.14219522 
C   -3.13564064   1.55105448  -0.61044718 
H   -3.96693803   1.86426139   0.01960396 
H   -3.57356390   1.15735720  -1.52921232 
H   -2.55728947   2.44424357  -0.84905120 
C   -3.10833883  -0.75324721   0.40345671 
H   -2.01441555   0.94658533   1.10129041 
H   -4.01916946  -0.50747262   0.94723049 
H   -3.39871440  -1.23807375  -0.52957723 
H   -2.55399056  -1.46774262   1.01029168 
C   -0.83414868   0.38708017  -1.76274754 
C    0.51941158   0.14990227  -2.22251103 
H   -1.60577050   0.75545170  -2.43266215 
C    1.62601581   0.52700610  -1.47039983 
C    2.82788934   0.09431343  -2.10277399 
S    0.93927703  -0.66716213  -3.66199270 
C    2.61009590  -0.55283500  -3.27759886 
H    1.54675112   1.39534675  -0.69405323 
H    3.81568206   0.30614287  -1.72007887 
H    3.34370352  -0.95377774  -3.96057382 
H   -0.86140073  -3.16377698  -0.15488401 
H   -0.66065606  -2.38836123   2.44523174 
H    1.88652357  -1.60815477   2.87111954 
O    1.28287657   2.47047650   0.27526009 
O    0.53667339   0.89658016   1.66991009 
C    0.89202917   2.10689771   1.37929130 
C    0.82191552   3.06534662   2.53583937 
H    0.77135668   4.09102766   2.18070763 
H    1.72650590   2.96446400   3.13868945 
H   -0.02383802   2.85413159   3.18704758 
H    3.24547016  -1.90501786   0.58552475 
H    1.54525617  -2.86307527  -1.29338359 
*
