39
Coordinates from ORCA-job reaction4-IEIP_ts_guess_scan_8-13_orca E -1288.402722814631
  Ir      0.603413     -0.730148      0.468440
  C       0.111751     -2.832129      0.354800
  C      -0.068147     -2.365924      1.705998
  C       2.157931     -2.088796      1.135229
  C       1.467197     -2.655456      0.005151
  C       1.208961     -1.940775      2.176156
  N      -1.055018      0.118080     -0.504431
  C      -2.338081      0.329131      0.186833
  C      -3.124235      1.524645     -0.333126
  H      -3.959331      1.716208      0.339009
  H      -3.553506      1.354077     -1.321294
  H      -2.516469      2.429111     -0.365888
  C      -3.164550     -0.950282      0.125134
  H      -2.071687      0.526910      1.226085
  H      -4.080274     -0.829690      0.702576
  H      -3.446933     -1.186682     -0.901640
  H      -2.629224     -1.804869      0.535947
  C      -0.897595      0.431745     -1.731292
  C       0.420047      0.271520     -2.258678
  H      -1.711501      0.825118     -2.333079
  C       1.501563      0.177349     -1.392868
  C       2.693482     -0.091281     -2.122629
  S       0.849594      0.075929     -3.895422
  C       2.488339     -0.162390     -3.468967
  H       1.636279      1.177308     -0.549005
  H       3.673771     -0.169533     -1.675485
  H       3.224347     -0.323533     -4.242093
  H      -0.655099     -3.244219     -0.284847
  H      -0.975651     -2.408949      2.289170
  H       1.404905     -1.505960      3.146211
  O       1.719771      2.270030      0.176484
  O       0.545190      1.011924      1.569438
  C       1.115094      2.099158      1.248350
  C       1.067221      3.217081      2.246272
  H       0.951576      4.173984      1.742267
  H       2.015724      3.249990      2.785163
  H       0.269448      3.075947      2.969956
  H       3.211799     -1.865129      1.196397
  H       1.909267     -2.900308     -0.949584
39
Coordinates from ORCA-job reaction4-IEIP_ts_guess_scan_8-13_orca E -1288.402971143366
  Ir      0.602684     -0.730753      0.466411
  C       0.109502     -2.834419      0.357449
  C      -0.067775     -2.368815      1.708948
  C       2.156096     -2.091075      1.134449
  C       1.464110     -2.658667      0.005754
  C       1.208473     -1.942485      2.175990
  N      -1.058610      0.116338     -0.503225
  C      -2.341482      0.327294      0.188544
  C      -3.127688      1.522552     -0.331875
  H      -3.963171      1.713843      0.339820
  H      -3.556392      1.351683     -1.320258
  H      -2.520316      2.427314     -0.364444
  C      -3.167838     -0.952183      0.126846
  H      -2.075176      0.525015      1.227838
  H      -4.083616     -0.831587      0.704175
  H      -3.450155     -1.188640     -0.899949
  H      -2.632478     -1.806651      0.537808
  C      -0.898161      0.431677     -1.734727
  C       0.423617      0.274424     -2.264821
  H      -1.711604      0.826655     -2.336094
  C       1.502228      0.173521     -1.395793
  C       2.695924     -0.094372     -2.123598
  S       0.857721      0.087558     -3.901217
  C       2.494761     -0.158383     -3.470912
  H       1.639331      1.184457     -0.550414
  H       3.674907     -0.175953     -1.674032
  H       3.232896     -0.317511     -4.242343
  H      -0.658335     -3.247161     -0.280624
  H      -0.973942     -2.412429      2.294028
  H       1.405622     -1.507367      3.145652
  O       1.726018      2.277622      0.174033
  O       0.545039      1.015155      1.569891
  C       1.117961      2.103465      1.248187
  C       1.069886      3.221160      2.246172
  H       0.954805      4.178357      1.742514
  H       2.017972      3.253659      2.785794
  H       0.271471      3.079764      2.969012
  H       3.210214     -1.868471      1.194853
  H       1.904873     -2.905400     -0.949103
39
Coordinates from ORCA-job reaction4-IEIP_ts_guess_scan_8-13_orca E -1288.403056010942
  Ir      0.601586     -0.730979      0.466236
  C       0.104878     -2.834992      0.364600
  C      -0.069889     -2.368893      1.715793
  C       2.152666     -2.092830      1.137626
  C       1.459254     -2.661769      0.010840
  C       1.205952     -1.942058      2.179518
  N      -1.059655      0.115052     -0.502579
  C      -2.342669      0.324829      0.187721
  C      -3.129853      1.518261     -0.335218
  H      -3.966876      1.708980      0.334755
  H      -3.556375      1.345361     -1.324185
  H      -2.523926      2.423966     -0.367830
  C      -3.167099     -0.955969      0.127001
  H      -2.077076      0.523868      1.226950
  H      -4.083505     -0.835971      0.703498
  H      -3.448216     -1.194082     -0.899704
  H      -2.630659     -1.809009      0.539553
  C      -0.898092      0.433455     -1.735178
  C       0.424462      0.279281     -2.269157
  H      -1.712241      0.829892     -2.334417
  C       1.500919      0.167323     -1.398958
  C       2.695611     -0.096331     -2.126728
  S       0.860375      0.105158     -3.906087
  C       2.497172     -0.144278     -3.475156
  H       1.641793      1.188089     -0.552771
  H       3.673657     -0.183559     -1.676158
  H       3.236871     -0.295726     -4.246614
  H      -0.664183     -3.248057     -0.271774
  H      -0.975116     -2.411311      2.302348
  H       1.404424     -1.505590      3.148310
  O       1.733653      2.280298      0.172480
  O       0.545477      1.016549      1.567640
  C       1.121709      2.103581      1.246896
  C       1.075697      3.220723      2.244725
  H       0.962738      4.178433      1.741546
  H       2.023576      3.251094      2.784865
  H       0.276504      3.080146      2.966781
  H       3.207194     -1.872064      1.197379
  H       1.898633     -2.911678     -0.943811
39
Coordinates from ORCA-job reaction4-IEIP_ts_guess_scan_8-13_orca E -1288.403105110058
  Ir      0.600628     -0.732188      0.466892
  C       0.100391     -2.836017      0.374074
  C      -0.072699     -2.368453      1.724574
  C       2.149332     -2.094823      1.143535
  C       1.454940     -2.665730      0.018644
  C       1.202894     -1.940986      2.185386
  N      -1.060130      0.113061     -0.503720
  C      -2.344184      0.320536      0.184964
  C      -3.133661      1.512428     -0.338095
  H      -3.971753      1.701062      0.331126
  H      -3.558941      1.338678     -1.327421
  H      -2.529800      2.419536     -0.369940
  C      -3.166601     -0.961633      0.123999
  H      -2.079665      0.519712      1.224509
  H      -4.083777     -0.842810      0.699536
  H      -3.446206     -1.200516     -0.902922
  H      -2.629190     -1.813490      0.537548
  C      -0.897526      0.436876     -1.735222
  C       0.424507      0.286759     -2.272431
  H      -1.712255      0.836089     -2.331625
  C       1.498906      0.159487     -1.401986
  C       2.694388     -0.097400     -2.130648
  S       0.863563      0.140403     -3.910805
  C       2.497563     -0.128642     -3.479883
  H       1.644650      1.189368     -0.555438
  H       3.671185     -0.195525     -1.679646
  H       3.237870     -0.274541     -4.251826
  H      -0.669581     -3.249688     -0.260798
  H      -0.977450     -2.408763      2.311950
  H       1.402361     -1.502307      3.152996
  O       1.742977      2.280009      0.171323
  O       0.546564      1.018998      1.564450
  C       1.127032      2.103036      1.245178
  C       1.084385      3.221116      2.241613
  H       0.974581      4.178850      1.737804
  H       2.032150      3.249014      2.782109
  H       0.284379      3.083258      2.963296
  H       3.204263     -1.876010      1.203069
  H       1.893279     -2.919564     -0.935427
39
Coordinates from ORCA-job reaction4-IEIP_ts_guess_scan_8-13_orca E -1288.403140282406
  Ir      0.599005     -0.735798      0.468790
  C       0.092983     -2.838140      0.387719
  C      -0.078958     -2.367012      1.736786
  C       2.143631     -2.099334      1.153884
  C       1.448335     -2.672916      0.031201
  C       1.196893     -1.939728      2.195010
  N      -1.059677      0.110306     -0.505881
  C      -2.345362      0.314342      0.181161
  C      -3.138128      1.504592     -0.340708
  H      -3.976902      1.690012      0.328487
  H      -3.562846      1.330548     -1.330220
  H      -2.536937      2.413536     -0.371410
  C      -3.165289     -0.969462      0.119057
  H      -2.082344      0.513126      1.221262
  H      -4.083607     -0.852296      0.693092
  H      -3.442642     -1.208849     -0.908359
  H      -2.626959     -1.820133      0.533651
  C      -0.896211      0.441687     -1.734751
  C       0.423763      0.294235     -2.275069
  H      -1.711650      0.843981     -2.328064
  C       1.495970      0.146162     -1.405322
  C       2.692533     -0.098407     -2.135992
  S       0.864860      0.175529     -3.914802
  C       2.499121     -0.095494     -3.486233
  H       1.648313      1.185550     -0.559883
  H       3.668059     -0.209045     -1.685237
  H       3.241375     -0.223396     -4.259521
  H      -0.677879     -3.252335     -0.245733
  H      -0.983860     -2.402850      2.324155
  H       1.397362     -1.497404      3.160775
  O       1.754983      2.274684      0.167959
  O       0.548753      1.021552      1.559301
  C       1.134971      2.100700      1.240998
  C       1.097713      3.221952      2.234107
  H       0.991948      4.178829      1.727865
  H       2.045746      3.247278      2.774273
  H       0.297257      3.089426      2.956335
  H       3.199172     -1.883630      1.213678
  H       1.885874     -2.932606     -0.921624
39
Coordinates from ORCA-job reaction4-IEIP_ts_guess_scan_8-13_orca E -1288.403155866402
  Ir      0.598138     -0.737820      0.469315
  C       0.091383     -2.839012      0.391284
  C      -0.082163     -2.365712      1.739449
  C       2.141597     -2.100076      1.158788
  C       1.447484     -2.675013      0.036119
  C       1.193603     -1.938203      2.198670
  N      -1.058998      0.108613     -0.507237
  C      -2.344762      0.311509      0.180469
  C      -3.138277      1.501932     -0.339762
  H      -3.976392      1.686303      0.330504
  H      -3.563978      1.328735     -1.329033
  H      -2.537470      2.411157     -0.370100
  C      -3.164375     -0.972400      0.117272
  H      -2.081767      0.509605      1.220722
  H      -4.083036     -0.855570      0.690798
  H      -3.441074     -1.211337     -0.910433
  H      -2.626322     -1.823290      0.531784
  C      -0.895924      0.443599     -1.734421
  C       0.423055      0.297070     -2.274647
  H      -1.711283      0.848231     -2.326390
  C       1.495077      0.141408     -1.406092
  C       2.691888     -0.097571     -2.137819
  S       0.866031      0.196128     -3.915215
  C       2.498511     -0.085873     -3.488139
  H       1.649509      1.181047     -0.561614
  H       3.666894     -0.214828     -1.687646
  H       3.240576     -0.210431     -4.262163
  H      -0.678738     -3.253819     -0.242672
  H      -0.988028     -2.399649      2.325447
  H       1.393249     -1.494071      3.163771
  O       1.758442      2.269875      0.166353
  O       0.548247      1.021855      1.556068
  C       1.136933      2.099045      1.238353
  C       1.101272      3.222035      2.230042
  H       0.996813      4.178241      1.722295
  H       2.049369      3.246857      2.770105
  H       0.300709      3.091933      2.952602
  H       3.197163     -1.884775      1.219650
  H       1.886012     -2.936535     -0.915737
39
Coordinates from ORCA-job reaction4-IEIP_ts_guess_scan_8-13_orca E -1288.403160859305
  Ir      0.597697     -0.739541      0.469658
  C       0.091478     -2.840146      0.392445
  C      -0.084210     -2.364878      1.739833
  C       2.140720     -2.100409      1.162397
  C       1.448240     -2.676404      0.039246
  C       1.191291     -1.937136      2.200860
  N      -1.058921      0.107455     -0.507766
  C      -2.344527      0.309769      0.180905
  C      -3.137645      1.501442     -0.337109
  H      -3.975089      1.685126      0.334193
  H      -3.564205      1.330196     -1.326350
  H      -2.536385      2.410411     -0.366337
  C      -3.164779     -0.973557      0.115463
  H      -2.081418      0.506366      1.221385
  H      -4.083766     -0.856890      0.688515
  H      -3.440975     -1.210981     -0.912725
  H      -2.627732     -1.825476      0.529116
  C      -0.896142      0.444406     -1.734208
  C       0.422493      0.297281     -2.273810
  H      -1.711118      0.850368     -2.325762
  C       1.494851      0.138505     -1.406201
  C       2.691794     -0.096722     -2.138595
  S       0.866123      0.203085     -3.914929
  C       2.498369     -0.079762     -3.488959
  H       1.650340      1.176589     -0.562689
  H       3.666714     -0.216298     -1.688875
  H       3.240462     -0.201036     -4.263482
  H      -0.677496     -3.255780     -0.242360
  H      -0.991096     -2.397789      2.324329
  H       1.389682     -1.491833      3.165667
  O       1.759751      2.266002      0.164328
  O       0.547769      1.021739      1.554054
  C       1.137969      2.098054      1.235892
  C       1.102803      3.222208      2.226538
  H       0.998023      4.177722      1.717543
  H       2.051226      3.247634      2.765970
  H       0.302677      3.093189      2.949765
  H       3.196179     -1.884882      1.224482
  H       1.888222     -2.938836     -0.911687
39
Coordinates from ORCA-job reaction4-IEIP_ts_guess_scan_8-13_orca E -1288.403161824157
  Ir      0.597406     -0.740088      0.469660
  C       0.091714     -2.840688      0.392659
  C      -0.085648     -2.364287      1.739536
  C       2.140005     -2.100212      1.164732
  C       1.448917     -2.676927      0.041118
  C       1.189367     -1.936327      2.202008
  N      -1.059025      0.107042     -0.507625
  C      -2.344496      0.308809      0.181474
  C      -3.137381      1.501256     -0.335214
  H      -3.974694      1.684342      0.336425
  H      -3.564023      1.331322     -1.324642
  H      -2.535921      2.410126     -0.363388
  C      -3.164851     -0.974323      0.114359
  H      -2.081368      0.504365      1.222120
  H      -4.084094     -0.858142      0.687118
  H      -3.440647     -1.210661     -0.914183
  H      -2.628174     -1.826850      0.527285
  C      -0.896409      0.444763     -1.734009
  C       0.422244      0.297391     -2.273602
  H      -1.711222      0.851374     -2.325298
  C       1.494758      0.137180     -1.406467
  C       2.691671     -0.096486     -2.139274
  S       0.865977      0.205907     -3.915038
  C       2.498170     -0.076959     -3.489651
  H       1.651267      1.174472     -0.563163
  H       3.666591     -0.216958     -1.689807
  H       3.240268     -0.196708     -4.264411
  H      -0.676312     -3.257023     -0.242829
  H      -0.993231     -2.396914      2.322982
  H       1.386614     -1.490472      3.166788
  O       1.761015      2.264404      0.163026
  O       0.547487      1.021884      1.552960
  C       1.138842      2.097792      1.234408
  C       1.103856      3.222209      2.224706
  H       0.998448      4.177447      1.715286
  H       2.052605      3.248156      2.763526
  H       0.304161      3.093274      2.948397
  H       3.195354     -1.884438      1.227876
  H       1.890130     -2.939860     -0.909106
39
Coordinates from ORCA-job reaction4-IEIP_ts_guess_scan_8-13_orca E -1288.403162787657
  Ir      0.597296     -0.740429      0.469633
  C       0.092719     -2.841414      0.392727
  C      -0.087161     -2.363859      1.738974
  C       2.139405     -2.099548      1.168035
  C       1.450504     -2.677288      0.043665
  C       1.186872     -1.935322      2.203549
  N      -1.059335      0.106649     -0.507257
  C      -2.344743      0.307716      0.182098
  C      -3.137108      1.501310     -0.332831
  H      -3.974509      1.683563      0.338930
  H      -3.563467      1.333288     -1.322700
  H      -2.535283      2.409989     -0.359238
  C      -3.165402     -0.975062      0.112548
  H      -2.081723      0.501695      1.223048
  H      -4.084964     -0.859599      0.684962
  H      -3.440696     -1.209718     -0.916512
  H      -2.629238     -1.828485      0.524305
  C      -0.896925      0.444968     -1.733702
  C       0.421723      0.297486     -2.273635
  H      -1.711688      0.852146     -2.324623
  C       1.494461      0.135791     -1.407073
  C       2.691223     -0.096450     -2.140500
  S       0.865221      0.208539     -3.915436
  C       2.497424     -0.074469     -3.490843
  H       1.652626      1.172452     -0.563489
  H       3.666225     -0.217669     -1.691418
  H       3.239435     -0.192819     -4.265903
  H      -0.673840     -3.258869     -0.243783
  H      -0.995681     -2.396609      2.320966
  H       1.382252     -1.488897      3.168442
  O       1.762884      2.263016      0.161673
  O       0.547379      1.022230      1.551855
  C       1.140136      2.097624      1.232878
  C       1.105358      3.222161      2.222904
  H       0.998646      4.177151      1.713231
  H       2.054717      3.249054      2.760589
  H       0.306488      3.092838      2.947396
  H       3.194551     -1.883270      1.232833
  H       1.893587     -2.940698     -0.905559
