! Opt PBEh-3c
%geom Constraints
{ B 0 20 2.0428571428571427 C }
{ B 24 30 1.5 C }
    end
end
%output 
xyzfile=True 
end 
%scf 
maxiter 250 
end
%output
Print[P_Hirshfeld] = 1
end
% maxcore
4000
*xyz 1 1
Ir   0.63712169  -0.71711081   0.39659288 
C    0.14202159  -2.83734989   0.32353501 
C    0.00277081  -2.38329623   1.68140700 
C    2.20326380  -2.07917586   1.03805015 
C    1.48555993  -2.65863936  -0.06764913 
C    1.28155943  -1.94038146   2.10734574 
N   -1.05347751   0.13728049  -0.52002822 
C   -2.31112718   0.37972867   0.20140027 
C   -3.10385990   1.56535424  -0.32947185 
H   -3.92197695   1.77728944   0.35725609 
H   -3.55741498   1.37001059  -1.30215103 
H   -2.49416873   2.46648035  -0.39930613 
C   -3.14589832  -0.89655675   0.19977880 
H   -2.00839891   0.59999948   1.22601355 
H   -4.04080193  -0.75265144   0.80365607 
H   -3.46355833  -1.15807283  -0.81037084 
H   -2.60122416  -1.74196572   0.61692796 
C   -0.90796850   0.44592127  -1.75529675 
C    0.41281605   0.23957725  -2.27324267 
H   -1.71139031   0.86734644  -2.35051820 
C    1.45158286   0.09756908  -1.34212900 
C    2.67403379  -0.18536319  -2.03736671 
S    0.90378784   0.04017845  -3.87855184 
C    2.52455869  -0.24391200  -3.38632153 
H    1.56093698   1.12892152  -0.68517609 
H    3.63349776  -0.27971960  -1.54970987 
H    3.28656174  -0.41408740  -4.13161652 
H   -0.64153030  -3.25723097  -0.29039654 
H   -0.88805431  -2.42735807   2.28921504 
H    1.50307556  -1.50074578   3.06962133 
O    1.54915407   2.39940070   0.11215934 
O    0.57378237   0.99352106   1.53790686 
C    1.03657222   2.14162327   1.20683560 
C    0.95589427   3.20353007   2.26746935 
H    0.93513158   4.19433136   1.82151472 
H    1.84571014   3.14129237   2.89650783 
H    0.08974115   3.06336809   2.90983959 
H    3.25926353  -1.86082942   1.07680936 
H    1.90182254  -2.91908743  -1.02979952 
*
