39
Generated by autodE on: 2023-08-14. E = -1288.397408 Ha
Ir    0.59385  -0.72951   0.48470
C     0.05630  -2.81804   0.37011
C     0.04162  -2.35858   1.73573
C     2.18830  -2.12874   0.92359
C     1.35895  -2.65459  -0.13668
C     1.38283  -1.98162   2.06918
N    -1.04060   0.13817  -0.50874
C    -2.31880   0.42372   0.16447
C    -3.10199   1.56048  -0.47430
H    -3.93262   1.82689   0.17790
H    -3.53864   1.28762  -1.43605
H    -2.49109   2.45391  -0.60535
C    -3.14776  -0.85263   0.24840
H    -2.04056   0.72514   1.17545
H    -4.06373  -0.66012   0.80517
H    -3.42937  -1.20738  -0.74391
H    -2.61655  -1.65204   0.76280
C    -0.86169   0.37041  -1.75415
C     0.47545   0.18913  -2.25998
H    -1.66544   0.72469  -2.39326
C     1.57741   0.38437  -1.43620
C     2.77585   0.03836  -2.12169
S     0.89516  -0.35463  -3.82034
C     2.55839  -0.36776  -3.40288
H     1.54763   1.30760  -0.61557
H     3.76431   0.14178  -1.69824
H     3.29224  -0.65397  -4.14111
H    -0.79294  -3.19476  -0.18160
H    -0.79530  -2.39179   2.41744
H     1.70144  -1.57405   3.01804
O     1.43828   2.39678   0.21060
O     0.54051   0.94857   1.64745
C     0.97631   2.11103   1.32076
C     0.92847   3.14402   2.40911
H     0.88803   4.14577   1.98994
H     1.84004   3.07064   3.00551
H     0.08689   2.98322   3.07895
H     3.24232  -1.90549   0.85504
H     1.68588  -2.88740  -1.13957
