39
Coordinates from ORCA-job reaction4-IEIP_ts_guess_scan_6-5_orca E -1288.399687791911
  Ir      0.601504     -0.711845      0.438040
  C       0.054903     -2.800922      0.346095
  C       0.105148     -2.344994      1.711608
  C       2.210005     -2.116145      0.798362
  C       1.331841     -2.639426     -0.223395
  C       1.461362     -1.969174      1.981554
  N      -1.051881      0.158548     -0.525172
  C      -2.321763      0.461530      0.153813
  C      -3.124312      1.563024     -0.520529
  H      -3.950286      1.845997      0.130608
  H      -3.569150      1.248152     -1.465774
  H      -2.525720      2.457899     -0.692999
  C      -3.137271     -0.817137      0.305079
  H      -2.029387      0.807053      1.146615
  H      -4.049387     -0.605436      0.861078
  H      -3.425297     -1.220689     -0.666508
  H      -2.594697     -1.585910      0.853223
  C      -0.866594      0.379928     -1.768738
  C       0.479541      0.168598     -2.240880
  H      -1.655062      0.741460     -2.422308
  C       1.561407      0.389096     -1.393761
  C       2.775927      0.005896     -2.033582
  S       0.934026     -0.456481     -3.757403
  C       2.588368     -0.460711     -3.297444
  H       1.512315      1.307338     -0.618818
  H       3.753367      0.125495     -1.589114
  H       3.337430     -0.786830     -4.003219
  H      -0.821242     -3.172660     -0.165605
  H      -0.699086     -2.376749      2.431603
  H       1.826052     -1.564202      2.914697
  O       1.365285      2.454214      0.220155
  O       0.539097      0.940407      1.633866
  C       0.938852      2.125815      1.328223
  C       0.887234      3.119958      2.453577
  H       0.854678      4.135944      2.069688
  H       1.791711      3.019809      3.056845
  H       0.038903      2.940778      3.110667
  H       3.259551     -1.892166      0.679925
  H       1.611995     -2.876272     -1.239328
39
Coordinates from ORCA-job reaction4-IEIP_ts_guess_scan_6-5_orca E -1288.396939445265
  Ir      0.607791     -0.690409      0.425338
  C       0.088838     -2.786284      0.294762
  C       0.123200     -2.355026      1.668422
  C       2.231207     -2.081374      0.775206
  C       1.367598     -2.598305     -0.261997
  C       1.471688     -1.964708      1.954891
  N      -1.058967      0.172618     -0.529351
  C      -2.322868      0.485290      0.155043
  C      -3.132605      1.572807     -0.533135
  H      -3.954316      1.866097      0.118807
  H      -3.583570      1.239770     -1.469233
  H      -2.537056      2.465472     -0.726377
  C      -3.133947     -0.792264      0.336022
  H      -2.022497      0.849037      1.138915
  H      -4.041531     -0.572833      0.896388
  H      -3.429663     -1.213477     -0.625699
  H      -2.584459     -1.550004      0.892659
  C      -0.884537      0.365618     -1.779730
  C       0.460688      0.141516     -2.246752
  H      -1.677785      0.704446     -2.439588
  C       1.538509      0.425656     -1.412362
  C       2.754758     -0.001230     -2.022167
  S       0.919211     -0.584399     -3.715732
  C       2.571137     -0.560575     -3.248195
  H       1.492705      1.426649     -0.740712
  H       3.731609      0.157870     -1.589029
  H       3.322915     -0.933691     -3.927172
  H      -0.778380     -3.160814     -0.229914
  H      -0.685527     -2.411058      2.381788
  H       1.823929     -1.571449      2.897756
  O       1.454986      2.413810      0.291231
  O       0.508159      0.933636      1.651905
  C       0.954817      2.106861      1.374843
  C       0.867815      3.104852      2.494644
  H       0.887060      4.120471      2.108859
  H       1.732923      2.979834      3.148829
  H      -0.021654      2.952057      3.102024
  H       3.278761     -1.842688      0.669048
  H       1.658428     -2.814589     -1.279493
39
Coordinates from ORCA-job reaction4-IEIP_ts_guess_scan_6-5_orca E -1288.399785095517
  Ir      0.604293     -0.710003      0.440638
  C       0.065805     -2.802848      0.339157
  C       0.107010     -2.354283      1.707082
  C       2.215635     -2.110721      0.805520
  C       1.345210     -2.633553     -0.222968
  C       1.459447     -1.972291      1.985310
  N      -1.050931      0.159686     -0.523129
  C      -2.318134      0.467870      0.156723
  C      -3.118202      1.568579     -0.521743
  H      -3.943574      1.855993      0.128183
  H      -3.563439      1.250919     -1.465912
  H      -2.517548      2.461404     -0.697705
  C      -3.135526     -0.808869      0.313247
  H      -2.023197      0.815980      1.147842
  H      -4.046068     -0.593984      0.870548
  H      -3.426255     -1.214656     -0.656599
  H      -2.592831     -1.576937      0.862376
  C      -0.867915      0.380740     -1.768619
  C       0.478077      0.170620     -2.245955
  H      -1.657407      0.745630     -2.419019
  C       1.562605      0.381700     -1.397514
  C       2.773880     -0.004645     -2.043951
  S       0.925854     -0.460118     -3.761617
  C       2.581469     -0.470164     -3.306733
  H       1.529148      1.315362     -0.636782
  H       3.753367      0.113169     -1.603589
  H       3.327495     -0.797597     -4.015010
  H      -0.805923     -3.176436     -0.178694
  H      -0.700485     -2.393878      2.422920
  H       1.817275     -1.570026      2.922251
  O       1.354896      2.440132      0.226550
  O       0.524836      0.936069      1.643051
  C       0.928996      2.118783      1.337239
  C       0.873517      3.118809      2.457191
  H       0.841692      4.132789      2.067987
  H       1.776158      3.022249      3.063725
  H       0.023243      2.942639      3.112486
  H       3.265086     -1.882977      0.694356
  H       1.631812     -2.865944     -1.238105
39
Coordinates from ORCA-job reaction4-IEIP_ts_guess_scan_6-5_orca E -1288.398390949581
  Ir      0.590608     -0.713739      0.441274
  C       0.037452     -2.804749      0.386342
  C       0.084727     -2.327522      1.744047
  C       2.192787     -2.117287      0.833225
  C       1.316535     -2.656641     -0.181584
  C       1.440004     -1.948509      2.011152
  N      -1.065851      0.141964     -0.536876
  C      -2.338348      0.439015      0.139031
  C      -3.147430      1.532544     -0.540476
  H      -3.976950      1.811674      0.107810
  H      -3.587721      1.211303     -1.485714
  H      -2.554931      2.431182     -0.714509
  C      -3.144331     -0.845306      0.293229
  H      -2.049592      0.789358      1.131103
  H      -4.057901     -0.639301      0.848976
  H      -3.429391     -1.253113     -0.677443
  H      -2.595389     -1.608631      0.842765
  C      -0.884054      0.364900     -1.782168
  C       0.464239      0.178654     -2.260363
  H      -1.676293      0.726942     -2.430629
  C       1.541350      0.377027     -1.401359
  C       2.763160      0.048542     -2.059536
  S       0.927900     -0.381777     -3.798273
  C       2.583551     -0.367824     -3.341575
  H       1.476823      1.267919     -0.594619
  H       3.738617      0.168788     -1.610865
  H       3.338035     -0.648001     -4.061120
  H      -0.837958     -3.183338     -0.121601
  H      -0.721442     -2.346391      2.462215
  H       1.802495     -1.528630      2.938536
  O       1.595875      2.391491      0.279583
  O       0.524139      0.960580      1.614218
  C       1.032523      2.111222      1.339713
  C       0.945257      3.121242      2.448299
  H       1.025659      4.131701      2.056931
  H       1.776571      2.963356      3.138230
  H       0.025817      3.013150      3.019605
  H       3.243614     -1.899468      0.715170
  H       1.599213     -2.913134     -1.192003
39
Coordinates from ORCA-job reaction4-IEIP_ts_guess_scan_6-5_orca E -1288.399826500716
  Ir      0.599254     -0.707966      0.441048
  C       0.053509     -2.800275      0.360115
  C       0.096052     -2.339648      1.723674
  C       2.205382     -2.110604      0.819870
  C       1.333418     -2.640481     -0.203523
  C       1.449228     -1.958685      1.998152
  N      -1.054769      0.157232     -0.526655
  C      -2.327336      0.451388      0.150230
  C      -3.133630      1.551528     -0.521875
  H      -3.963428      1.827224      0.127513
  H      -3.573350      1.238257     -1.470061
  H      -2.539362      2.450413     -0.688399
  C      -3.136106     -0.832452      0.293743
  H      -2.038879      0.793602      1.145265
  H      -4.049848     -0.628913      0.850123
  H      -3.420976     -1.232234     -0.680319
  H      -2.589270     -1.601046      0.837951
  C      -0.869377      0.389690     -1.769960
  C       0.475914      0.185683     -2.250789
  H      -1.659788      0.756017     -2.418223
  C       1.560983      0.377502     -1.399010
  C       2.771092     -0.001421     -2.051637
  S       0.922738     -0.408540     -3.780956
  C       2.577578     -0.440202     -3.323780
  H       1.533939      1.301004     -0.625002
  H       3.750630      0.102470     -1.607840
  H       3.322627     -0.756941     -4.037888
  H      -0.819410     -3.175840     -0.154274
  H      -0.711545     -2.370232      2.439803
  H       1.808161     -1.548692      2.931320
  O       1.431016      2.433801      0.239286
  O       0.522859      0.950506      1.631975
  C       0.962805      2.123179      1.336152
  C       0.904358      3.123844      2.455134
  H       0.909330      4.138427      2.066255
  H       1.787857      3.003482      3.085134
  H       0.032727      2.969659      3.087475
  H       3.255728     -1.887844      0.707030
  H       1.619258     -2.883703     -1.216317
39
Coordinates from ORCA-job reaction4-IEIP_ts_guess_scan_6-5_orca E -1288.399848047143
  Ir      0.605036     -0.714524      0.442150
  C       0.052873     -2.805430      0.361018
  C       0.093075     -2.345071      1.724531
  C       2.205529     -2.122397      0.826205
  C       1.334720     -2.649659     -0.199399
  C       1.446443     -1.967692      2.002308
  N      -1.049248      0.156170     -0.526775
  C      -2.319603      0.455646      0.152137
  C      -3.122829      1.558713     -0.518760
  H      -3.950336      1.837739      0.132113
  H      -3.565553      1.246907     -1.466017
  H      -2.525458      2.455282     -0.686543
  C      -3.133839     -0.824569      0.297744
  H      -2.028036      0.797292      1.146542
  H      -4.045876     -0.616605      0.855305
  H      -3.421917     -1.223784     -0.675601
  H      -2.589723     -1.595123      0.841685
  C      -0.866855      0.384587     -1.771349
  C       0.477263      0.179861     -2.252519
  H      -1.657999      0.750559     -2.418970
  C       1.559969      0.374681     -1.399239
  C       2.772569      0.005943     -2.053199
  S       0.925456     -0.421723     -3.779061
  C       2.581962     -0.429284     -3.327183
  H       1.529030      1.307471     -0.634506
  H       3.751632      0.118970     -1.610598
  H       3.329237     -0.735875     -4.043370
  H      -0.819693     -3.178516     -0.155711
  H      -0.716536     -2.373179      2.438484
  H       1.804049     -1.558491      2.936328
  O       1.382520      2.441378      0.222002
  O       0.529944      0.942459      1.633841
  C       0.944990      2.121706      1.329175
  C       0.895623      3.120927      2.449835
  H       0.874402      4.135651      2.061838
  H       1.795448      3.015170      3.058992
  H       0.041641      2.951711      3.102109
  H       3.256992     -1.903473      0.716494
  H       1.622465     -2.894238     -1.211294
39
Coordinates from ORCA-job reaction4-IEIP_ts_guess_scan_6-5_orca E -1288.399869021133
  Ir      0.605092     -0.714312      0.442404
  C       0.053908     -2.805273      0.361678
  C       0.092336     -2.344594      1.725014
  C       2.205726     -2.121122      0.828746
  C       1.336349     -2.649173     -0.197526
  C       1.445055     -1.966311      2.003962
  N      -1.048657      0.154890     -0.526439
  C      -2.318883      0.453600      0.153127
  C      -3.121527      1.558481     -0.515470
  H      -3.948774      1.836685      0.136084
  H      -3.564583      1.248816     -1.463266
  H      -2.523633      2.455016     -0.681548
  C      -3.134128     -0.826289      0.296246
  H      -2.027173      0.793175      1.148197
  H      -4.046069     -0.618664      0.854087
  H      -3.422404     -1.223454     -0.677878
  H      -2.590727     -1.598303      0.838786
  C      -0.866902      0.385282     -1.770739
  C       0.476913      0.182670     -2.253984
  H      -1.658635      0.752725     -2.416809
  C       1.560190      0.372390     -1.400378
  C       2.772266      0.002635     -2.054750
  S       0.925604     -0.401146     -3.787006
  C       2.580610     -0.429239     -3.329765
  H       1.530330      1.303626     -0.632670
  H       3.751187      0.107184     -1.609770
  H       3.326910     -0.739490     -4.045399
  H      -0.817891     -3.178902     -0.155950
  H      -0.718113     -2.372586      2.438002
  H       1.801383     -1.556438      2.938180
  O       1.387744      2.439420      0.221998
  O       0.529852      0.942742      1.633088
  C       0.946331      2.121233      1.328216
  C       0.893735      3.122244      2.447153
  H       0.873653      4.136398      2.057607
  H       1.791854      3.017352      3.058982
  H       0.037888      2.954016      3.097236
  H       3.257281     -1.902001      0.720292
  H       1.625273     -2.894096     -1.208998
39
Coordinates from ORCA-job reaction4-IEIP_ts_guess_scan_6-5_orca E -1288.399883038220
  Ir      0.603465     -0.713357      0.444657
  C       0.054187     -2.804523      0.363250
  C       0.089555     -2.343801      1.726585
  C       2.204602     -2.118510      0.834192
  C       1.337698     -2.647534     -0.193584
  C       1.441274     -1.964206      2.007934
  N      -1.048561      0.153853     -0.525148
  C      -2.319554      0.450349      0.154019
  C      -3.121636      1.557172     -0.512124
  H      -3.949444      1.833489      0.139525
  H      -3.563880      1.250185     -1.461159
  H      -2.523571      2.454158     -0.675162
  C      -3.134945     -0.829961      0.292551
  H      -2.029018      0.787059      1.150361
  H      -4.047489     -0.623957      0.849995
  H      -3.422144     -1.224295     -0.683039
  H      -2.592142     -1.603626      0.833400
  C      -0.866696      0.386579     -1.769090
  C       0.476373      0.184112     -2.255114
  H      -1.659255      0.754177     -2.414048
  C       1.561232      0.365526     -1.401332
  C       2.772127     -0.001990     -2.059049
  S       0.922924     -0.389618     -3.792386
  C       2.578643     -0.421585     -3.337905
  H       1.533521      1.294507     -0.629526
  H       3.751512      0.096254     -1.613718
  H       3.323702     -0.727170     -4.056837
  H      -0.816272     -3.178907     -0.156116
  H      -0.722343     -2.372026      2.437894
  H       1.795396     -1.553707      2.942730
  O       1.404988      2.431543      0.225719
  O       0.528154      0.944523      1.634256
  C       0.952380      2.119886      1.329378
  C       0.895238      3.125423      2.444091
  H       0.882701      4.138186      2.050662
  H       1.788077      3.018916      3.063336
  H       0.033563      2.963356      3.088004
  H       3.256266     -1.898797      0.727973
  H       1.628744     -2.892494     -1.204436
39
Coordinates from ORCA-job reaction4-IEIP_ts_guess_scan_6-5_orca E -1288.399890807201
  Ir      0.604340     -0.714896      0.446609
  C       0.053524     -2.805710      0.366060
  C       0.085485     -2.343903      1.729056
  C       2.203339     -2.120980      0.842158
  C       1.338800     -2.650458     -0.187376
  C       1.436589     -1.964857      2.013573
  N      -1.047023      0.152791     -0.524808
  C      -2.318523      0.446802      0.154825
  C      -3.119760      1.557245     -0.506459
  H      -3.947658      1.830941      0.146186
  H      -3.561851      1.254898     -1.457029
  H      -2.521110      2.454613     -0.665128
  C      -3.134786     -0.833673      0.286644
  H      -2.028766      0.778662      1.152990
  H      -4.047642     -0.629772      0.844358
  H      -3.421449     -1.223195     -0.691031
  H      -2.592880     -1.610314      0.824137
  C      -0.866345      0.387806     -1.768677
  C       0.475556      0.187141     -2.257477
  H      -1.660294      0.755268     -2.411971
  C       1.560457      0.360636     -1.402188
  C       2.771110     -0.003582     -2.061701
  S       0.921880     -0.375267     -3.798771
  C       2.577338     -0.412660     -3.344065
  H       1.533508      1.290558     -0.629775
  H       3.750411      0.089437     -1.615131
  H       3.322172     -0.713553     -4.065189
  H      -0.815702     -3.179978     -0.155479
  H      -0.728491     -2.370485      2.438041
  H       1.788415     -1.553503      2.948879
  O       1.405775      2.430228      0.222077
  O       0.531599      0.945656      1.634972
  C       0.953952      2.120632      1.326854
  C       0.897501      3.129018      2.438988
  H       0.882453      4.140747      2.043028
  H       1.791932      3.025544      3.056440
  H       0.037524      2.967109      3.085194
  H       3.255625     -1.902813      0.739042
  H       1.632365     -2.896939     -1.197118
39
Coordinates from ORCA-job reaction4-IEIP_ts_guess_scan_6-5_orca E -1288.399896881903
  Ir      0.605931     -0.717319      0.449305
  C       0.055507     -2.808103      0.366977
  C       0.080280     -2.346019      1.730011
  C       2.202987     -2.123139      0.854109
  C       1.343785     -2.653102     -0.179631
  C       1.429705     -1.966541      2.021303
  N      -1.044102      0.150698     -0.523765
  C      -2.315137      0.444037      0.157445
  C      -3.113511      1.560657     -0.497048
  H      -3.940277      1.832949      0.157611
  H      -3.556955      1.264959     -1.449039
  H      -2.512237      2.457064     -0.650955
  C      -3.134959     -0.835001      0.281353
  H      -2.024934      0.769209      1.157698
  H      -4.047422     -0.632033      0.840082
  H      -3.422417     -1.217852     -0.698720
  H      -2.595345     -1.616452      0.814080
  C      -0.865811      0.386758     -1.767930
  C       0.474336      0.187998     -2.260368
  H      -1.661748      0.754013     -2.408887
  C       1.559654      0.352719     -1.403911
  C       2.769913     -0.005419     -2.066744
  S       0.919856     -0.360973     -3.806569
  C       2.575144     -0.403174     -3.352772
  H       1.532946      1.284786     -0.631528
  H       3.749461      0.083098     -1.619859
  H       3.319510     -0.697584     -4.077048
  H      -0.810706     -3.182843     -0.159189
  H      -0.737557     -2.371938      2.434564
  H       1.776527     -1.554475      2.958180
  O       1.401254      2.427402      0.215764
  O       0.534778      0.944420      1.635460
  C       0.953312      2.119273      1.322856
  C       0.895119      3.131850      2.431017
  H       0.873289      4.141908      2.031130
  H       1.792337      3.035597      3.045565
  H       0.038307      2.967773      3.080843
  H       3.256009     -1.905849      0.757048
  H       1.642540     -2.900162     -1.187695
39
Coordinates from ORCA-job reaction4-IEIP_ts_guess_scan_6-5_orca E -1288.399896697296
  Ir      0.605888     -0.717366      0.449808
  C       0.057005     -2.808615      0.366276
  C       0.078490     -2.346367      1.729391
  C       2.203059     -2.122155      0.858299
  C       1.346408     -2.652772     -0.177262
  C       1.427014     -1.966091      2.023718
  N      -1.044106      0.150134     -0.523413
  C      -2.315217      0.442568      0.158130
  C      -3.112568      1.561410     -0.493867
  H      -3.939215      1.832870      0.161283
  H      -3.556044      1.268226     -1.446609
  H      -2.510416      2.457578     -0.645656
  C      -3.135746     -0.836392      0.278260
  H      -2.025305      0.764956      1.159349
  H      -4.048223     -0.634647      0.837422
  H      -3.423207     -1.216303     -0.702957
  H      -2.596535     -1.619688      0.808696
  C      -0.866464      0.386279     -1.767701
  C       0.473346      0.188209     -2.260769
  H      -1.663062      0.752959     -2.408183
  C       1.558942      0.351612     -1.404365
  C       2.768918     -0.006311     -2.067544
  S       0.918698     -0.358667     -3.807871
  C       2.573807     -0.402075     -3.354224
  H       1.532490      1.284183     -0.632186
  H       3.748600      0.081211     -1.620761
  H       3.318017     -0.695724     -4.078979
  H      -0.807669     -3.184190     -0.161815
  H      -0.740912     -2.372726      2.432113
  H       1.771462     -1.553700      2.961332
  O       1.400441      2.427714      0.213815
  O       0.535074      0.945384      1.634981
  C       0.952269      2.120360      1.321046
  C       0.897315      3.132913      2.429396
  H       0.874741      4.142957      2.029522
  H       1.796155      3.036485      3.041559
  H       0.042182      2.969026      3.081459
  H       3.256221     -1.904467      0.763737
  H       1.647517     -2.899591     -1.184692
39
Coordinates from ORCA-job reaction4-IEIP_ts_guess_scan_6-5_orca E -1288.399896667682
  Ir      0.606038     -0.717268      0.450128
  C       0.059980     -2.809432      0.364014
  C       0.076054     -2.347130      1.727363
  C       2.203605     -2.120294      0.864283
  C       1.351184     -2.651868     -0.174350
  C       1.423056     -1.965584      2.026834
  N      -1.044419      0.149671     -0.522478
  C      -2.315587      0.440482      0.159716
  C      -3.111066      1.563234     -0.487916
  H      -3.937546      1.833279      0.168022
  H      -3.554504      1.274487     -1.442009
  H      -2.507304      2.458936     -0.635944
  C      -3.137221     -0.838403      0.273112
  H      -2.026137      0.757886      1.162607
  H      -4.049574     -0.639092      0.833363
  H      -3.424941     -1.212881     -0.710120
  H      -2.598411     -1.625019      0.799088
  C      -0.867831      0.385770     -1.767000
  C       0.471564      0.188287     -2.260819
  H      -1.665391      0.751534     -2.406833
  C       1.557909      0.350908     -1.405114
  C       2.767161     -0.007936     -2.068761
  S       0.916112     -0.358095     -3.808605
  C       2.571063     -0.402800     -3.355678
  H       1.532264      1.283788     -0.633211
  H       3.747246      0.078717     -1.622697
  H       3.314787     -0.696673     -4.080856
  H      -0.802110     -3.186473     -0.167241
  H      -0.745854     -2.374613      2.427123
  H       1.763537     -1.552898      2.965774
  O       1.402514      2.428281      0.211844
  O       0.536228      0.947221      1.633868
  C       0.954398      2.121735      1.319268
  C       0.899508      3.135118      2.426872
  H       0.875263      4.144771      2.026091
  H       1.799285      3.040403      3.037925
  H       0.045396      2.970720      3.080127
  H       3.256937     -1.901739      0.773792
  H       1.656178     -2.897841     -1.180840
39
Coordinates from ORCA-job reaction4-IEIP_ts_guess_scan_6-5_orca E -1288.399897292243
  Ir      0.606722     -0.716750      0.450556
  C       0.067437     -2.810860      0.357798
  C       0.071594     -2.349375      1.721799
  C       2.205383     -2.115500      0.876126
  C       1.362457     -2.648816     -0.169382
  C       1.414969     -1.964678      2.032561
  N      -1.044865      0.148926     -0.520280
  C      -2.315681      0.437939      0.163336
  C      -3.107079      1.568094     -0.476525
  H      -3.932951      1.836436      0.180862
  H      -3.550807      1.287402     -1.432846
  H      -2.499759      2.462396     -0.618143
  C      -3.140210     -0.840084      0.265281
  H      -2.026422      0.746438      1.168983
  H      -4.051660     -0.644600      0.828356
  H      -3.429577     -1.204412     -0.721283
  H      -2.602140     -1.633041      0.782520
  C      -0.870428      0.383674     -1.765435
  C       0.468336      0.186160     -2.260605
  H      -1.669506      0.747971     -2.404241
  C       1.556376      0.349351     -1.407014
  C       2.764294     -0.009966     -2.072642
  S       0.910377     -0.362430     -3.808753
  C       2.565665     -0.406850     -3.358645
  H       1.532021      1.282530     -0.635700
  H       3.745434      0.077387     -1.629059
  H       3.308198     -0.701827     -4.084612
  H      -0.788967     -3.190957     -0.180403
  H      -0.755640     -2.380146      2.415136
  H       1.746577     -1.551745      2.974583
  O       1.404061      2.428091      0.208179
  O       0.536976      0.949163      1.631674
  C       0.956069      2.123084      1.315971
  C       0.901321      3.137705      2.422493
  H       0.873206      4.146721      2.020305
  H       1.803203      3.046554      3.030978
  H       0.049532      2.971791      3.078346
  H       3.258905     -1.894514      0.794429
  H       1.675953     -2.892073     -1.173962
39
Coordinates from ORCA-job reaction4-IEIP_ts_guess_scan_6-5_orca E -1288.399897571644
  Ir      0.607699     -0.716653      0.450528
  C       0.072038     -2.811681      0.353915
  C       0.068717     -2.350809      1.718202
  C       2.206445     -2.112949      0.883424
  C       1.369545     -2.647342     -0.166284
  C       1.409669     -1.964211      2.035958
  N      -1.044779      0.148376     -0.518889
  C      -2.315231      0.436596      0.165713
  C      -3.104241      1.571092     -0.469473
  H      -3.929815      1.838342      0.188731
  H      -3.548117      1.295257     -1.427114
  H      -2.494930      2.464633     -0.607160
  C      -3.141812     -0.840603      0.261367
  H      -2.025797      0.739996      1.172840
  H      -4.052252     -0.647124      0.826761
  H      -3.432952     -1.198706     -0.726957
  H      -2.604096     -1.637460      0.772975
  C      -0.871736      0.382487     -1.764330
  C       0.466629      0.184657     -2.260750
  H      -1.671511      0.746552     -2.402406
  C       1.555589      0.348409     -1.408538
  C       2.762763     -0.011479     -2.075378
  S       0.906771     -0.364895     -3.809070
  C       2.562661     -0.408969     -3.360933
  H       1.532346      1.281648     -0.637437
  H       3.744437      0.075963     -1.633007
  H       3.304438     -0.704404     -4.087478
  H      -0.780925     -3.193358     -0.188597
  H      -0.761866     -2.383425      2.407449
  H       1.735623     -1.551006      2.979850
  O       1.404674      2.427697      0.205824
  O       0.537894      0.949696      1.630348
  C       0.956878      2.123449      1.313898
  C       0.901155      3.139021      2.419488
  H       0.869865      4.147558      2.016292
  H       1.804314      3.050912      3.026516
  H       0.050819      2.971642      3.076824
  H       3.260106     -1.890738      0.807241
  H       1.688356     -2.888984     -1.169603
39
Coordinates from ORCA-job reaction4-IEIP_ts_guess_scan_6-5_orca E -1288.399897683252
  Ir      0.608937     -0.716901      0.450444
  C       0.076124     -2.812557      0.350546
  C       0.065600     -2.352258      1.715013
  C       2.207205     -2.111117      0.890741
  C       1.376151     -2.646650     -0.162909
  C       1.404129     -1.963860      2.039399
  N      -1.044565      0.147674     -0.517639
  C      -2.314676      0.435201      0.167864
  C      -3.101636      1.573560     -0.462998
  H      -3.927182      1.839435      0.195800
  H      -3.545381      1.302301     -1.421985
  H      -2.490796      2.466647     -0.596713
  C      -3.143240     -0.841124      0.257958
  H      -2.025039      0.734078      1.176270
  H      -4.052422     -0.649396      0.825953
  H      -3.436533     -1.193287     -0.731863
  H      -2.605773     -1.641694      0.764024
  C      -0.872739      0.381657     -1.763191
  C       0.465212      0.183271     -2.261149
  H      -1.672934      0.746064     -2.400572
  C       1.554948      0.347257     -1.410096
  C       2.761524     -0.012251     -2.078580
  S       0.903254     -0.366536     -3.809708
  C       2.560015     -0.410239     -3.363658
  H       1.532856      1.280566     -0.639083
  H       3.743638      0.075455     -1.637249
  H       3.301016     -0.705608     -4.091006
  H      -0.773647     -3.195446     -0.196102
  H      -0.768253     -2.386282      2.400236
  H       1.724593     -1.550183      2.984985
  O       1.405594      2.427042      0.203658
  O       0.539437      0.949990      1.629434
  C       0.957730      2.123688      1.311979
  C       0.901002      3.140388      2.416451
  H       0.866404      4.148386      2.012149
  H       1.805491      3.055482      3.021946
  H       0.052185      2.971598      3.075364
  H       3.261061     -1.888145      0.819938
  H       1.700081     -2.887018     -1.164912
39
Coordinates from ORCA-job reaction4-IEIP_ts_guess_scan_6-5_orca E -1288.399897796080
  Ir      0.609485     -0.717154      0.450301
  C       0.077296     -2.812841      0.349502
  C       0.064405     -2.352773      1.714018
  C       2.207329     -2.110795      0.893175
  C       1.378220     -2.646771     -0.161736
  C       1.402109     -1.963741      2.040497
  N      -1.044452      0.147375     -0.517434
  C      -2.314384      0.434815      0.168435
  C      -3.101021      1.574024     -0.461297
  H      -3.926690      1.839252      0.197614
  H      -3.544618      1.303968     -1.420686
  H      -2.490063      2.467207     -0.593822
  C      -3.143473     -0.841238      0.257445
  H      -2.024549      0.732756      1.177063
  H      -4.052008     -0.649871      0.826589
  H      -3.437846     -1.191776     -0.732628
  H      -2.605936     -1.642853      0.761786
  C      -0.872968      0.381649     -1.762918
  C       0.464825      0.183093     -2.261552
  H      -1.673112      0.746576     -2.400080
  C       1.554696      0.346906     -1.410702
  C       2.761129     -0.012667     -2.079564
  S       0.902237     -0.366203     -3.810252
  C       2.559373     -0.410074     -3.364722
  H       1.533146      1.280243     -0.639611
  H       3.743238      0.074717     -1.638156
  H       3.300114     -0.705260     -4.092400
  H      -0.771505     -3.195923     -0.198522
  H      -0.770565     -2.387001      2.397866
  H       1.720780     -1.549780      2.986574
  O       1.406009      2.426837      0.202989
  O       0.540436      0.949839      1.629260
  C       0.958079      2.123630      1.311355
  C       0.900915      3.140743      2.415415
  H       0.864953      4.148543      2.010733
  H       1.805943      3.057114      3.020282
  H       0.052724      2.971342      3.074972
  H       3.261303     -1.887835      0.824211
  H       1.703814     -2.886884     -1.163263
