39
Generated by autodE on: 2023-08-14. E = -1288.389924 Ha
Ir    0.56107  -0.75301   0.54891
C     0.00632  -2.82853   0.41477
C     0.02074  -2.37509   1.78384
C     2.15415  -2.16837   0.94007
C     1.30018  -2.67040  -0.11327
C     1.37628  -2.02426   2.10176
N    -1.02957   0.12663  -0.49456
C    -2.32159   0.42408   0.14992
C    -3.10244   1.53573  -0.53448
H    -3.94094   1.81936   0.10022
H    -3.52839   1.23083  -1.49144
H    -2.49459   2.42764  -0.68836
C    -3.14756  -0.85161   0.26380
H    -2.06190   0.76076   1.15506
H    -4.07847  -0.64086   0.78832
H    -3.40247  -1.24721  -0.72031
H    -2.62917  -1.62750   0.82520
C    -0.83028   0.34387  -1.74074
C     0.50730   0.18525  -2.25155
H    -1.63544   0.67680  -2.39026
C     1.62796   0.46720  -1.48403
C     2.81209   0.14760  -2.20156
S     0.89501  -0.38237  -3.82073
C     2.56802  -0.30777  -3.46294
H     1.57222   1.36423  -0.58572
H     3.81048   0.30413  -1.81944
H     3.28904  -0.58634  -4.21673
H    -0.85733  -3.18912  -0.12516
H    -0.80539  -2.40429   2.47916
H     1.71764  -1.63408   3.04987
O     1.45551   2.36314   0.23803
O     0.53977   0.93618   1.68870
C     0.98753   2.08957   1.35144
C     0.95204   3.13509   2.42660
H     0.88995   4.13077   1.99547
H     1.87937   3.08175   3.00055
H     0.12873   2.97274   3.11804
H     3.20641  -1.94398   0.84794
H     1.60710  -2.88937  -1.12567
