39
Generated by autodE on: 2023-08-13. E = -1288.396114 Ha
Ir    0.57689  -0.73058   0.47265
C     0.02050  -2.80922   0.34599
C     0.10992  -2.36597   1.71685
C     2.18984  -2.14538   0.75699
C     1.28216  -2.64488  -0.25168
C     1.48013  -2.01403   1.96260
N    -1.04339   0.17280  -0.51538
C    -2.31649   0.51023   0.14065
C    -3.13660   1.54211  -0.61626
H    -3.97095   1.85533   0.00974
H    -3.57002   1.14848  -1.53714
H    -2.55711   2.43521  -0.85239
C    -3.11422  -0.76251   0.39622
H    -2.02613   0.93784   1.10190
H    -4.02989  -0.51723   0.93205
H    -3.39628  -1.24825  -0.53891
H    -2.56479  -1.47631   1.00839
C    -0.82958   0.37859  -1.75675
C     0.52413   0.15393  -2.22027
H    -1.60414   0.73984  -2.42738
C     1.63202   0.54303  -1.47763
C     2.83223   0.12453  -2.12108
S     0.94075  -0.64954  -3.67076
C     2.61216  -0.51953  -3.29797
H     1.54565   1.40755  -0.67594
H     3.82130   0.34356  -1.74571
H     3.34514  -0.90948  -3.98800
H    -0.87276  -3.16582  -0.14644
H    -0.67566  -2.40243   2.45742
H     1.87306  -1.62937   2.89277
O     1.30478   2.44867   0.27216
O     0.53629   0.89886   1.68149
C     0.90612   2.10059   1.38023
C     0.84708   3.07371   2.52418
H     0.80445   4.09541   2.15679
H     1.75254   2.97234   3.12571
H     0.00131   2.87715   3.17984
H     3.23351  -1.91225   0.60601
H     1.53543  -2.85781  -1.28018
