39
Generated by autodE on: 2023-08-13. E = -1288.397447 Ha
Ir    0.58519  -0.72520   0.46324
C     0.02939  -2.80553   0.34537
C     0.11371  -2.35882   1.71485
C     2.19710  -2.13904   0.76022
C     1.29317  -2.64353  -0.24922
C     1.48202  -2.00303   1.96268
N    -1.04341   0.17101  -0.51856
C    -2.31470   0.50400   0.14308
C    -3.13028   1.55104  -0.59798
H    -3.96129   1.86097   0.03412
H    -3.56855   1.17329  -1.52321
H    -2.54527   2.44335  -0.82313
C    -3.11730  -0.76938   0.37972
H    -2.02225   0.91599   1.11040
H    -4.03139  -0.52881   0.92037
H    -3.40210  -1.23951  -0.56250
H    -2.56967  -1.49476   0.97977
C    -0.83739   0.37689  -1.76137
C     0.51437   0.15342  -2.22812
H    -1.61576   0.73628  -2.42846
C     1.61866   0.51422  -1.46482
C     2.82193   0.09920  -2.10486
S     0.93817  -0.62621  -3.68695
C     2.60724  -0.51943  -3.29623
H     1.53826   1.38783  -0.67553
H     3.80903   0.30261  -1.71585
H     3.34269  -0.90169  -3.98791
H    -0.86178  -3.16441  -0.14923
H    -0.67434  -2.39287   2.45280
H     1.87141  -1.61362   2.89237
O     1.30293   2.45552   0.26600
O     0.53635   0.90434   1.67443
C     0.90423   2.10647   1.37384
C     0.84497   3.07931   2.51820
H     0.79930   4.10102   2.15125
H     1.75183   2.97982   3.11792
H     0.00092   2.88056   3.17541
H     3.24201  -1.90887   0.61396
H     1.54995  -2.86326  -1.27533
