39
Generated by autodE on: 2023-08-15. E = -1288.393271 Ha
Ir    0.57929  -0.74948   0.53416
C     0.05319  -2.83492   0.39528
C    -0.02475  -2.37288   1.75868
C     2.15844  -2.14336   1.04847
C     1.37840  -2.66887  -0.04837
C     1.29982  -1.99576   2.15415
N    -1.03180   0.11658  -0.49182
C    -2.32122   0.38277   0.17118
C    -3.08979   1.54715  -0.43653
H    -3.92735   1.79518   0.21408
H    -3.51530   1.31221  -1.41303
H    -2.47195   2.44061  -0.52846
C    -3.15882  -0.89042   0.19182
H    -2.06166   0.64722   1.19737
H    -4.08172  -0.71718   0.74366
H    -3.42847  -1.20133  -0.81841
H    -2.63916  -1.71516   0.67723
C    -0.85317   0.36131  -1.73660
C     0.47438   0.20999  -2.26868
H    -1.66870   0.70757  -2.36574
C     1.59744   0.37366  -1.47171
C     2.77574   0.07313  -2.20640
S     0.85345  -0.23264  -3.87662
C     2.52428  -0.25637  -3.50559
H     1.59947   1.30213  -0.57622
H     3.77594   0.15494  -1.80637
H     3.24025  -0.49315  -4.27816
H    -0.76796  -3.21474  -0.19527
H    -0.89151  -2.40790   2.40208
H     1.57344  -1.58739   3.11671
O     1.54814   2.33470   0.21192
O     0.54361   0.96197   1.65352
C     1.02980   2.09474   1.31414
C     0.98232   3.16883   2.35985
H     0.91846   4.15202   1.90083
H     1.90715   3.13684   2.93920
H     0.15510   3.02124   3.04957
H     3.21417  -1.91906   1.02789
H     1.75040  -2.89498  -1.03709
