39
Coordinates from ORCA-job reaction4-IEIP_ts_guess_scan_13-4_orca E -1288.396532337557
  Ir      0.628282     -0.715274      0.392191
  C       0.157420     -2.836297      0.306356
  C      -0.035119     -2.388954      1.661175
  C       2.184834     -2.057497      1.096144
  C       1.514852     -2.645700     -0.031895
  C       1.220195     -1.932108      2.133576
  N      -1.068165      0.134669     -0.518327
  C      -2.331284      0.346299      0.203388
  C      -3.132880      1.538535     -0.298978
  H      -3.956489      1.723350      0.388889
  H      -3.579212      1.366303     -1.279360
  H      -2.531434      2.446915     -0.340460
  C      -3.154921     -0.936495      0.161144
  H      -2.036973      0.542591      1.235398
  H      -4.053208     -0.819652      0.765975
  H      -3.466745     -1.170036     -0.857651
  H      -2.604339     -1.790085      0.552969
  C      -0.923018      0.474911     -1.740646
  C       0.394840      0.277524     -2.252972
  H      -1.725482      0.908422     -2.328440
  C       1.419924      0.067093     -1.320839
  C       2.639815     -0.208713     -2.022823
  S       0.895649      0.156626     -3.864716
  C       2.502062     -0.189920     -3.375170
  H       1.589257      1.108332     -0.635805
  H       3.593176     -0.351502     -1.534732
  H       3.268071     -0.337072     -4.121340
  H      -0.596516     -3.268100     -0.335566
  H      -0.947246     -2.442555      2.235632
  H       1.400771     -1.491205      3.103802
  O       1.688898      2.339922      0.109241
  O       0.569256      1.018805      1.506843
  C       1.107288      2.131191      1.184305
  C       1.036427      3.225972      2.210363
  H       0.955199      4.197336      1.728556
  H       1.961790      3.226782      2.788995
  H       0.209294      3.079191      2.899717
  H       3.236997     -1.831778      1.175107
  H       1.968105     -2.898632     -0.979308
39
Coordinates from ORCA-job reaction4-IEIP_ts_guess_scan_13-4_orca E -1288.396621485073
  Ir      0.626559     -0.708999      0.388120
  C       0.160916     -2.833928      0.305952
  C      -0.031701     -2.388355      1.661273
  C       2.186082     -2.049131      1.094831
  C       1.517711     -2.640126     -0.032645
  C       1.221304     -1.926841      2.132257
  N      -1.074212      0.134408     -0.519652
  C      -2.336723      0.346377      0.203165
  C      -3.140166      1.535962     -0.302427
  H      -3.963721      1.721729      0.385221
  H      -3.586609      1.360070     -1.282118
  H      -2.540010      2.445064     -0.347040
  C      -3.158798     -0.937548      0.165787
  H      -2.041886      0.546255      1.234376
  H      -4.056773     -0.820020      0.770950
  H      -3.471155     -1.174764     -0.852009
  H      -2.606756     -1.789145      0.559893
  C      -0.928049      0.471146     -1.747631
  C       0.392400      0.274802     -2.262668
  H      -1.731628      0.901168     -2.336392
  C       1.416431      0.067425     -1.328427
  C       2.637337     -0.210332     -2.028897
  S       0.895364      0.151757     -3.873766
  C       2.501008     -0.195494     -3.381363
  H       1.591977      1.127666     -0.660616
  H       3.590538     -0.350617     -1.539594
  H       3.267935     -0.345190     -4.125982
  H      -0.591946     -3.268466     -0.335418
  H      -0.943043     -2.445352      2.236550
  H       1.400903     -1.485553      3.102495
  O       1.743580      2.314494      0.145791
  O       0.556287      1.024138      1.508938
  C       1.122483      2.125700      1.202540
  C       1.039293      3.226741      2.220601
  H       0.991990      4.197054      1.732131
  H       1.945376      3.213107      2.828834
  H       0.187698      3.098814      2.883297
  H       3.237800     -1.821358      1.174060
  H       1.971574     -2.893472     -0.979675
39
Coordinates from ORCA-job reaction4-IEIP_ts_guess_scan_13-4_orca E -1288.395756154177
  Ir      0.634610     -0.714466      0.389031
  C       0.160161     -2.843009      0.303790
  C      -0.027661     -2.407687      1.662900
  C       2.188011     -2.068652      1.093095
  C       1.517031     -2.652673     -0.036050
  C       1.224585     -1.950380      2.132139
  N      -1.064469      0.139582     -0.507715
  C      -2.325961      0.353737      0.215628
  C      -3.120381      1.551878     -0.283763
  H      -3.944796      1.738047      0.402699
  H      -3.564758      1.385497     -1.266077
  H      -2.514390      2.457477     -0.320465
  C      -3.156121     -0.924592      0.167961
  H      -2.031748      0.544318      1.248819
  H      -4.054469     -0.805815      0.772320
  H      -3.468137     -1.152736     -0.852029
  H      -2.609996     -1.782283      0.557099
  C      -0.908735      0.487996     -1.741553
  C       0.415915      0.287921     -2.264167
  H      -1.709356      0.927515     -2.327134
  C       1.433337      0.050584     -1.328526
  C       2.651659     -0.242757     -2.029839
  S       0.922416      0.176935     -3.875375
  C       2.519854     -0.208675     -3.382128
  H       1.651539      1.134195     -0.679742
  H       3.601357     -0.404133     -1.539870
  H       3.286523     -0.364344     -4.125617
  H      -0.594896     -3.272736     -0.338298
  H      -0.937449     -2.466849      2.240176
  H       1.406896     -1.515531      3.104773
  O       1.547943      2.360952      0.072703
  O       0.559814      1.015075      1.530201
  C       1.046402      2.141341      1.186826
  C       1.004039      3.237013      2.212037
  H       0.861437      4.203392      1.734328
  H       1.962945      3.269942      2.732131
  H       0.226249      3.065561      2.950995
  H       3.240917     -1.846774      1.173534
  H       1.969052     -2.905674     -0.984094
39
Coordinates from ORCA-job reaction4-IEIP_ts_guess_scan_13-4_orca E -1288.396871525490
  Ir      0.627023     -0.715078      0.390163
  C       0.152396     -2.840321      0.314979
  C      -0.034492     -2.395835      1.671221
  C       2.181825     -2.062178      1.097721
  C       1.509100     -2.651835     -0.027573
  C       1.219734     -1.936910      2.137468
  N      -1.071257      0.132948     -0.515143
  C      -2.334006      0.344998      0.205734
  C      -3.133563      1.537721     -0.298562
  H      -3.959008      1.723064      0.386949
  H      -3.576965      1.365585     -1.280302
  H      -2.531416      2.445704     -0.338579
  C      -3.158261     -0.937338      0.162758
  H      -2.040739      0.540957      1.238083
  H      -4.057278     -0.820074      0.766421
  H      -3.468861     -1.170933     -0.856396
  H      -2.608331     -1.790963      0.555508
  C      -0.922066      0.474852     -1.744051
  C       0.399592      0.280744     -2.262104
  H      -1.725071      0.909185     -2.330260
  C       1.419805      0.056795     -1.327095
  C       2.643667     -0.213337     -2.026892
  S       0.907186      0.174214     -3.872799
  C       2.512265     -0.177265     -3.379436
  H       1.602629      1.125705     -0.661023
  H       3.595277     -0.359793     -1.536208
  H       3.282160     -0.315574     -4.123205
  H      -0.603617     -3.272861     -0.324017
  H      -0.944259     -2.450134      2.249159
  H       1.403220     -1.495812      3.107052
  O       1.672358      2.348351      0.101939
  O       0.569360      1.020924      1.508599
  C       1.100905      2.134829      1.183486
  C       1.038232      3.228238      2.210248
  H       0.947977      4.199739      1.730295
  H       1.970121      3.231744      2.778278
  H       0.219361      3.077283      2.908322
  H       3.234674     -1.839171      1.175131
  H       1.959692     -2.908980     -0.975127
39
Coordinates from ORCA-job reaction4-IEIP_ts_guess_scan_13-4_orca E -1288.396899987083
  Ir      0.625658     -0.715133      0.390555
  C       0.150161     -2.839614      0.318846
  C      -0.036599     -2.394492      1.674729
  C       2.179685     -2.061483      1.100550
  C       1.507016     -2.651942     -0.024091
  C       1.217556     -1.935385      2.140279
  N      -1.071471      0.131986     -0.516607
  C      -2.334814      0.342183      0.203734
  C      -3.136556      1.533755     -0.299957
  H      -3.962215      1.717525      0.385724
  H      -3.579889      1.361167     -1.281623
  H      -2.535907      2.442729     -0.339799
  C      -3.157116     -0.941469      0.161048
  H      -2.041791      0.538372      1.236178
  H      -4.056331     -0.825487      0.764686
  H      -3.467251     -1.175777     -0.858070
  H      -2.605759     -1.794038      0.554065
  C      -0.922994      0.475857     -1.743620
  C       0.397596      0.283828     -2.262154
  H      -1.726530      0.910958     -2.328458
  C       1.417484      0.055029     -1.327912
  C       2.641448     -0.211947     -2.028395
  S       0.907609      0.194591     -3.872971
  C       2.510093     -0.170104     -3.380789
  H       1.601388      1.126821     -0.665892
  H       3.592273     -0.364386     -1.538160
  H       3.279668     -0.307646     -4.125052
  H      -0.605987     -3.272429     -0.319785
  H      -0.946557     -2.447638      2.252490
  H       1.401202     -1.493191      3.109337
  O       1.695101      2.340475      0.108768
  O       0.570257      1.022237      1.505726
  C       1.111388      2.131908      1.184777
  C       1.043238      3.228727      2.207921
  H       0.962850      4.199425      1.724591
  H       1.969098      3.229216      2.785755
  H       0.216286      3.083709      2.897719
  H       3.232601     -1.838851      1.177970
  H       1.957483     -2.910296     -0.971371
39
Coordinates from ORCA-job reaction4-IEIP_ts_guess_scan_13-4_orca E -1288.396932792627
  Ir      0.622942     -0.717778      0.391899
  C       0.144330     -2.841084      0.328231
  C      -0.041311     -2.394444      1.683605
  C       2.174797     -2.063896      1.107106
  C       1.501525     -2.655976     -0.015950
  C       1.212938     -1.935268      2.147105
  N      -1.072309      0.129750     -0.518329
  C      -2.336856      0.337140      0.200881
  C      -3.140892      1.527659     -0.301667
  H      -3.967150      1.708957      0.383907
  H      -3.583606      1.355275     -1.283639
  H      -2.542026      2.437875     -0.340243
  C      -3.156970     -0.947942      0.157178
  H      -2.044835      0.532875      1.233795
  H      -4.056962     -0.833635      0.759975
  H      -3.465603     -1.182571     -0.862315
  H      -2.604427     -1.799472      0.550653
  C      -0.923604      0.477927     -1.743328
  C       0.395782      0.287544     -2.263066
  H      -1.727763      0.914057     -2.326499
  C       1.413792      0.047593     -1.329156
  C       2.639576     -0.210096     -2.029904
  S       0.908909      0.216253     -3.873571
  C       2.512267     -0.145014     -3.381810
  H       1.600944      1.126917     -0.674955
  H       3.589071     -0.369449     -1.539410
  H       3.284405     -0.268788     -4.125866
  H      -0.612506     -3.274362     -0.309273
  H      -0.951339     -2.444932      2.261468
  H       1.397505     -1.490821      3.114969
  O       1.710537      2.334728      0.106722
  O       0.573486      1.024387      1.500798
  C       1.120242      2.130288      1.180415
  C       1.055977      3.229576      2.201584
  H       0.981689      4.199891      1.716554
  H       1.980632      3.226269      2.781378
  H       0.226810      3.090055      2.889879
  H       3.228047     -1.842780      1.184284
  H       1.951327     -2.917519     -0.962663
39
Coordinates from ORCA-job reaction4-IEIP_ts_guess_scan_13-4_orca E -1288.396961210507
  Ir      0.620875     -0.722234      0.392786
  C       0.139259     -2.844200      0.336637
  C      -0.045843     -2.396471      1.691720
  C       2.170315     -2.067959      1.113985
  C       1.497039     -2.661555     -0.008016
  C       1.208190     -1.937026      2.153888
  N      -1.072499      0.126869     -0.519452
  C      -2.337598      0.332303      0.199703
  C      -3.142609      1.523015     -0.300654
  H      -3.968851      1.702301      0.385409
  H      -3.585397      1.352069     -1.282866
  H      -2.544487      2.433808     -0.337590
  C      -3.157016     -0.953157      0.154125
  H      -2.046025      0.526603      1.233080
  H      -4.057621     -0.839716      0.756137
  H      -3.464481     -1.187079     -0.865883
  H      -2.604469     -1.804660      0.547522
  C      -0.922789      0.481678     -1.742649
  C       0.396484      0.294083     -2.263397
  H      -1.726736      0.921536     -2.323314
  C       1.411747      0.039433     -1.329901
  C       2.639414     -0.209441     -2.030952
  S       0.915553      0.251619     -3.872838
  C       2.515621     -0.124909     -3.382158
  H       1.603822      1.125896     -0.681971
  H       3.586919     -0.380132     -1.540412
  H       3.289450     -0.240012     -4.125867
  H      -0.617880     -3.277966     -0.300204
  H      -0.956189     -2.444558      2.269235
  H       1.393211     -1.490466      3.120698
  O       1.707880      2.337192      0.095056
  O       0.577738      1.025464      1.494986
  C       1.123044      2.130646      1.172112
  C       1.064359      3.230677      2.192963
  H       0.985646      4.200601      1.707884
  H       1.992846      3.228856      2.766593
  H       0.239907      3.090495      2.886750
  H       3.223844     -1.848295      1.191545
  H       1.946694     -2.926117     -0.953952
39
Coordinates from ORCA-job reaction4-IEIP_ts_guess_scan_13-4_orca E -1288.396970564251
  Ir      0.621110     -0.724426      0.392447
  C       0.138971     -2.845617      0.337167
  C      -0.047624     -2.397627      1.692067
  C       2.169292     -2.069565      1.116902
  C       1.497412     -2.663598     -0.005695
  C       1.205848     -1.938140      2.155639
  N      -1.071576      0.126181     -0.519487
  C      -2.336053      0.332041      0.200684
  C      -3.140623      1.523441     -0.298649
  H      -3.966250      1.702760      0.388156
  H      -3.584170      1.353322     -1.280667
  H      -2.542063      2.433962     -0.335413
  C      -3.156191     -0.952892      0.154822
  H      -2.043752      0.525839      1.233931
  H      -4.056732     -0.838936      0.756836
  H      -3.463793     -1.186406     -0.865229
  H      -2.604287     -1.804903      0.548042
  C      -0.921857      0.483242     -1.742244
  C       0.397270      0.294924     -2.263528
  H      -1.725441      0.924924     -2.321985
  C       1.412020      0.036580     -1.330515
  C       2.639854     -0.210519     -2.031968
  S       0.916939      0.257114     -3.872869
  C       2.516862     -0.120229     -3.382914
  H       1.605677      1.125121     -0.685041
  H       3.586976     -0.384105     -1.541675
  H       3.291087     -0.232287     -4.126669
  H      -0.617350     -3.279631     -0.300478
  H      -0.958760     -2.445205      2.268366
  H       1.389800     -1.491129      3.122435
  O       1.700019      2.338961      0.089251
  O       0.578030      1.024480      1.493099
  C       1.119947      2.130782      1.168691
  C       1.062786      3.230433      2.189999
  H       0.979318      4.200213      1.705414
  H       1.993831      3.230956      2.759460
  H       0.241805      3.087932      2.887403
  H       3.222759     -1.850072      1.195850
  H       1.948282     -2.928733     -0.950893
39
Coordinates from ORCA-job reaction4-IEIP_ts_guess_scan_13-4_orca E -1288.396972915916
  Ir      0.621513     -0.725686      0.392083
  C       0.139784     -2.846465      0.336806
  C      -0.048881     -2.398073      1.691428
  C       2.168877     -2.069909      1.119614
  C       1.498871     -2.664490     -0.003820
  C       1.203768     -1.938332      2.156903
  N      -1.071381      0.125964     -0.519363
  C      -2.335582      0.331552      0.201495
  C      -3.139947      1.523646     -0.296504
  H      -3.965339      1.702360      0.390754
  H      -3.583750      1.354726     -1.278611
  H      -2.541264      2.434132     -0.332349
  C      -3.156087     -0.953069      0.154281
  H      -2.042993      0.524401      1.234808
  H      -4.056758     -0.839306      0.756146
  H      -3.463521     -1.185558     -0.866050
  H      -2.604692     -1.805707      0.546815
  C      -0.921664      0.484722     -1.741770
  C       0.397452      0.295685     -2.263389
  H      -1.724885      0.927801     -2.320907
  C       1.412208      0.035505     -1.330895
  C       2.639831     -0.211229     -2.032881
  S       0.917020      0.259911     -3.872804
  C       2.516739     -0.118928     -3.383709
  H       1.606356      1.124734     -0.686408
  H       3.586868     -0.386446     -1.542984
  H       3.290824     -0.230236     -4.127717
  H      -0.615362     -3.281080     -0.301818
  H      -0.960897     -2.445598      2.266336
  H       1.386180     -1.491026      3.123846
  O       1.697869      2.339695      0.086465
  O       0.578506      1.024359      1.491700
  C       1.118998      2.131227      1.166503
  C       1.062499      3.230562      2.188113
  H       0.977086      4.200327      1.703823
  H       1.994631      3.231972      2.755794
  H       0.242982      3.087071      2.887018
  H       3.222175     -1.850193      1.200196
  H       1.951335     -2.929833     -0.948204
39
Coordinates from ORCA-job reaction4-IEIP_ts_guess_scan_13-4_orca E -1288.396972925381
  Ir      0.622427     -0.727273      0.391374
  C       0.141919     -2.847518      0.335155
  C      -0.051275     -2.398650      1.689230
  C       2.168190     -2.069768      1.124650
  C       1.502271     -2.665243     -0.000662
  C       1.199486     -1.938416      2.158895
  N      -1.070918      0.126089     -0.518746
  C      -2.334681      0.330851      0.203169
  C      -3.138786      1.524228     -0.292202
  H      -3.963971      1.701538      0.395683
  H      -3.582758      1.357688     -1.274634
  H      -2.539993      2.434727     -0.325986
  C      -3.155607     -0.953359      0.153083
  H      -2.041657      0.521708      1.236690
  H      -4.056475     -0.840461      0.754837
  H      -3.462796     -1.183606     -0.867825
  H      -2.604839     -1.807183      0.543895
  C      -0.921512      0.487306     -1.740549
  C       0.397377      0.297050     -2.263029
  H      -1.724244      0.932664     -2.318573
  C       1.412507      0.034491     -1.331634
  C       2.639304     -0.212802     -2.034907
  S       0.915766      0.262628     -3.872828
  C       2.515381     -0.118452     -3.385542
  H       1.607449      1.124368     -0.688538
  H       3.586436     -0.390224     -1.545970
  H       3.288814     -0.229591     -4.130248
  H      -0.610660     -3.283360     -0.305643
  H      -0.965128     -2.446442      2.261199
  H       1.378474     -1.490853      3.126347
  O       1.697876      2.339895      0.083572
  O       0.579871      1.024059      1.489504
  C       1.119963      2.131198      1.164036
  C       1.061494      3.230932      2.184992
  H       0.973581      4.200227      1.700164
  H       1.994058      3.234759      2.751939
  H       0.242780      3.086040      2.884524
  H       3.221093     -1.849462      1.208728
  H       1.958151     -2.930593     -0.943413
39
Coordinates from ORCA-job reaction4-IEIP_ts_guess_scan_13-4_orca E -1288.396971531481
  Ir      0.623163     -0.727766      0.390747
  C       0.145273     -2.848013      0.332868
  C      -0.053741     -2.398983      1.686289
  C       2.167560     -2.067790      1.130575
  C       1.506978     -2.664518      0.002953
  C       1.194358     -1.937560      2.161115
  N      -1.070894      0.126344     -0.518147
  C      -2.334486      0.329840      0.204366
  C      -3.138431      1.524472     -0.288268
  H      -3.963745      1.700050      0.399907
  H      -3.582124      1.360488     -1.271251
  H      -2.539640      2.435066     -0.319536
  C      -3.155547     -0.954145      0.150928
  H      -2.041345      0.518429      1.238258
  H      -4.056595     -0.842694      0.752698
  H      -3.462492     -1.181744     -0.870646
  H      -2.605066     -1.809158      0.539532
  C      -0.921995      0.489216     -1.739421
  C       0.396582      0.298339     -2.262810
  H      -1.724493      0.936231     -2.316474
  C       1.412327      0.034514     -1.332452
  C       2.638040     -0.214327     -2.037141
  S       0.913267      0.263884     -3.873102
  C       2.512768     -0.119959     -3.387635
  H       1.607908      1.124761     -0.690695
  H       3.585450     -0.393167     -1.549255
  H       3.285231     -0.232328     -4.133162
  H      -0.603940     -3.285639     -0.310635
  H      -0.969797     -2.447749      2.254657
  H       1.368833     -1.489820      3.129301
  O       1.699223      2.340004      0.081758
  O       0.580847      1.024480      1.487596
  C       1.120178      2.131924      1.161656
  C       1.062938      3.231072      2.183285
  H       0.974089      4.200591      1.699058
  H       1.996393      3.234940      2.748788
  H       0.245303      3.085644      2.883941
  H       3.219862     -1.846305      1.218948
  H       1.967132     -2.929433     -0.937853
39
Coordinates from ORCA-job reaction4-IEIP_ts_guess_scan_13-4_orca E -1288.396971290078
  Ir      0.623748     -0.727625      0.390529
  C       0.148718     -2.848376      0.330415
  C      -0.055512     -2.399963      1.683430
  C       2.167180     -2.065643      1.135535
  C       1.511476     -2.663269      0.005747
  C       1.189981     -1.937250      2.162890
  N      -1.071129      0.126582     -0.517350
  C      -2.334781      0.329000      0.205286
  C      -3.138203      1.525037     -0.284797
  H      -3.963806      1.699196      0.403380
  H      -3.581428      1.363603     -1.268410
  H      -2.539089      2.435498     -0.313567
  C      -3.156238     -0.954621      0.148587
  H      -2.041788      0.515168      1.239667
  H      -4.057219     -0.844646      0.750732
  H      -3.463322     -1.179355     -0.873586
  H      -2.605905     -1.810876      0.534654
  C      -0.922776      0.489840     -1.738451
  C       0.395453      0.298904     -2.262718
  H      -1.725399      0.937410     -2.314918
  C       1.411840      0.034905     -1.333049
  C       2.636678     -0.215428     -2.038887
  S       0.910357      0.262839     -3.873474
  C       2.510144     -0.121953     -3.389268
  H       1.607860      1.125297     -0.692028
  H       3.584500     -0.394307     -1.551811
  H       3.281800     -0.235509     -4.135455
  H      -0.597425     -3.287540     -0.315586
  H      -0.973474     -2.450084      2.248605
  H       1.360289     -1.489692      3.131898
  O       1.701983      2.339854      0.081166
  O       0.582641      1.024972      1.486874
  C       1.122832      2.131997      1.161025
  C       1.064686      3.231737      2.181999
  H       0.974903      4.200909      1.697229
  H       1.998245      3.236892      2.747313
  H       0.247262      3.085987      2.882829
  H       3.218902     -1.842996      1.227774
  H       1.975387     -2.927304     -0.933468
39
Coordinates from ORCA-job reaction4-IEIP_ts_guess_scan_13-4_orca E -1288.396972743628
  Ir      0.624084     -0.726711      0.390585
  C       0.154032     -2.848625      0.326423
  C      -0.057918     -2.402177      1.679064
  C       2.166481     -2.061702      1.142561
  C       1.518141     -2.660447      0.009457
  C       1.183470     -1.937106      2.165367
  N      -1.071680      0.126496     -0.516311
  C      -2.335436      0.327881      0.206268
  C      -3.137643      1.526071     -0.280511
  H      -3.963563      1.698892      0.407596
  H      -3.580361      1.368074     -1.264912
  H      -2.537553      2.435971     -0.306216
  C      -3.157748     -0.955062      0.145596
  H      -2.042672      0.510688      1.241340
  H      -4.058094     -0.847073      0.749031
  H      -3.465875     -1.175711     -0.877168
  H      -2.607279     -1.813064      0.527649
  C      -0.924341      0.488780     -1.737625
  C       0.393379      0.298489     -2.263032
  H      -1.727651      0.935723     -2.313691
  C       1.410580      0.035413     -1.333903
  C       2.634606     -0.216442     -2.040867
  S       0.906254      0.260006     -3.874260
  C       2.506648     -0.124820     -3.391136
  H       1.607037      1.126195     -0.693896
  H       3.583012     -0.394309     -1.554547
  H       3.277461     -0.239744     -4.137991
  H      -0.587509     -3.289867     -0.323423
  H      -0.978683     -2.454776      2.239441
  H       1.347461     -1.490072      3.135705
  O       1.704170      2.340042      0.080041
  O       0.584972      1.025839      1.486564
  C       1.125700      2.132297      1.160337
  C       1.068521      3.232618      2.180869
  H       0.977171      4.201479      1.695761
  H       2.003068      3.238979      2.744532
  H       0.252374      3.086610      2.883133
  H       3.217271     -1.837135      1.240530
  H       1.987482     -2.922511     -0.927621
39
Coordinates from ORCA-job reaction4-IEIP_ts_guess_scan_13-4_orca E -1288.396976081302
  Ir      0.624167     -0.726217      0.390927
  C       0.158578     -2.849070      0.322923
  C      -0.059669     -2.404908      1.675441
  C       2.165967     -2.058657      1.148266
  C       1.523719     -2.658061      0.012298
  C       1.178288     -1.937744      2.167433
  N      -1.072196      0.125809     -0.515565
  C      -2.335855      0.327091      0.207181
  C      -3.136344      1.527462     -0.276992
  H      -3.962198      1.699960      0.411265
  H      -3.579075      1.372363     -1.261850
  H      -2.534788      2.436441     -0.300627
  C      -3.159596     -0.954833      0.143690
  H      -2.043099      0.507138      1.242748
  H      -4.058987     -0.847947      0.748730
  H      -3.469309     -1.172024     -0.879345
  H      -2.609215     -1.814496      0.522176
  C      -0.925815      0.486624     -1.737371
  C       0.391556      0.296851     -2.263530
  H      -1.729915      0.932256     -2.313398
  C       1.409293      0.034985     -1.334592
  C       2.633169     -0.216799     -2.041987
  S       0.903591      0.257455     -3.874931
  C       2.504570     -0.126178     -3.392205
  H       1.605818      1.126370     -0.695447
  H       3.581940     -0.393480     -1.555933
  H       3.275089     -0.241165     -4.139353
  H      -0.579171     -3.291749     -0.330235
  H      -0.982778     -2.459653      2.231747
  H       1.337058     -1.491295      3.138905
  O       1.703324      2.340532      0.077949
  O       0.586672      1.026407      1.486629
  C       1.126793      2.132680      1.159351
  C       1.071502      3.233451      2.179593
  H       0.977864      4.201989      1.694278
  H       2.007626      3.241073      2.740608
  H       0.257428      3.087004      2.884171
  H       3.215953     -1.832472      1.250976
  H       1.997415     -2.918003     -0.923186
39
Coordinates from ORCA-job reaction4-IEIP_ts_guess_scan_13-4_orca E -1288.396980579662
  Ir      0.624218     -0.726157      0.391451
  C       0.163516     -2.849722      0.318773
  C      -0.061616     -2.408417      1.671257
  C       2.165375     -2.055840      1.154512
  C       1.529806     -2.655628      0.015236
  C       1.172628     -1.939122      2.169670
  N      -1.072581      0.124590     -0.514758
  C      -2.335852      0.326398      0.208596
  C      -3.133939      1.529509     -0.272709
  H      -3.959333      1.702251      0.416048
  H      -3.577185      1.377692     -1.257848
  H      -2.530300      2.437142     -0.294476
  C      -3.161733     -0.954023      0.142372
  H      -2.042803      0.503483      1.244569
  H      -4.059732     -0.847876      0.749598
  H      -3.473782     -1.167376     -0.880765
  H      -2.611669     -1.815721      0.516759
  C      -0.927414      0.483484     -1.737336
  C       0.389644      0.293943     -2.264186
  H      -1.732464      0.927290     -2.313471
  C       1.407886      0.033511     -1.335406
  C       2.631987     -0.216946     -2.042893
  S       0.901519      0.254934     -3.875635
  C       2.503111     -0.126596     -3.393098
  H       1.604237      1.125726     -0.697182
  H       3.581021     -0.392415     -1.556892
  H       3.273614     -0.240633     -4.140404
  H      -0.570085     -3.293622     -0.338198
  H      -0.987391     -2.465337      2.222901
  H       1.325689     -1.493468      3.142415
  O       1.700384      2.341051      0.074554
  O       0.588166      1.026760      1.486623
  C       1.126699      2.133158      1.157563
  C       1.073731      3.234436      2.177412
  H       0.976842      4.202513      1.691815
  H       2.011968      3.243799      2.734851
  H       0.262504      3.087275      2.885112
  H       3.214468     -1.827995      1.262511
  H       2.008234     -2.912861     -0.918598
39
Coordinates from ORCA-job reaction4-IEIP_ts_guess_scan_13-4_orca E -1288.396983175283
  Ir      0.624375     -0.726507      0.391835
  C       0.165996     -2.850149      0.316461
  C      -0.062484     -2.410386      1.668988
  C       2.165219     -2.054963      1.157578
  C       1.532891     -2.654627      0.016523
  C       1.170018     -1.940304      2.170721
  N      -1.072610      0.123672     -0.514244
  C      -2.335493      0.326163      0.209722
  C      -3.131924      1.530999     -0.270032
  H      -3.956848      1.704225      0.419188
  H      -3.575707      1.381080     -1.255216
  H      -2.526884      2.437714     -0.290946
  C      -3.162961     -0.953148      0.142128
  H      -2.042102      0.501703      1.245829
  H      -4.060088     -0.847027      0.750649
  H      -3.476511     -1.164393     -0.880985
  H      -2.613374     -1.816135      0.514278
  C      -0.928170      0.481430     -1.737362
  C       0.388775      0.291661     -2.264495
  H      -1.733720      0.924132     -2.313632
  C       1.407307      0.031984     -1.335873
  C       2.631724     -0.216922     -2.043205
  S       0.901009      0.253794     -3.875931
  C       2.502865     -0.126178     -3.393440
  H       1.603383      1.124602     -0.697905
  H       3.580826     -0.391864     -1.557143
  H       3.273508     -0.239091     -4.140770
  H      -0.565591     -3.294371     -0.342523
  H      -0.989645     -2.468176      2.218215
  H       1.320324     -1.495229      3.144156
  O       1.698025      2.341003      0.072321
  O       0.588601      1.026740      1.486573
  C       1.125837      2.133412      1.156198
  C       1.073641      3.235087      2.175604
  H       0.974890      4.202802      1.689654
  H       2.012902      3.245620      2.731291
  H       0.263855      3.087506      2.884854
  H       3.213885     -1.826441      1.268257
  H       2.013624     -2.910231     -0.916581
39
Coordinates from ORCA-job reaction4-IEIP_ts_guess_scan_13-4_orca E -1288.396983487630
  Ir      0.624598     -0.726794      0.392005
  C       0.166428     -2.850220      0.315812
  C      -0.062648     -2.410735      1.668369
  C       2.165298     -2.055263      1.158177
  C       1.533501     -2.654621      0.016659
  C       1.169639     -1.940847      2.170880
  N      -1.072409      0.123361     -0.513949
  C      -2.335105      0.326153      0.210328
  C      -3.130947      1.531605     -0.268915
  H      -3.955662      1.705033      0.420517
  H      -3.574953      1.382365     -1.254098
  H      -2.525443      2.438018     -0.289536
  C      -3.163189     -0.952711      0.142255
  H      -2.041540      0.501257      1.246437
  H      -4.060087     -0.846466      0.751102
  H      -3.477171     -1.163305     -0.880855
  H      -2.613928     -1.816182      0.513781
  C      -0.928211      0.480806     -1.737260
  C       0.388696      0.290736     -2.264469
  H      -1.733862      0.923245     -2.313572
  C       1.407367      0.031099     -1.336039
  C       2.631900     -0.216957     -2.043295
  S       0.901175      0.253737     -3.875941
  C       2.503028     -0.125732     -3.393555
  H       1.603347      1.123671     -0.697808
  H       3.581002     -0.391927     -1.557247
  H       3.273737     -0.238056     -4.140907
  H      -0.564823     -3.294265     -0.343662
  H      -0.990136     -2.468461      2.217058
  H       1.319506     -1.496097      3.144528
  O       1.697491      2.340569      0.071693
  O       0.588466      1.026636      1.486502
  C       1.125264      2.133456      1.155604
  C       1.072525      3.235431      2.174593
  H       0.973550      4.202947      1.688288
  H       2.011701      3.246394      2.730416
  H       0.262682      3.087844      2.883768
  H       3.213917     -1.826800      1.269434
  H       2.014666     -2.909731     -0.916359
