39
Coordinates from ORCA-job reaction4-IEIP_ts_guess_scan_5-11_orca E -1288.398068138782
  Ir      0.595829     -0.725897      0.477391
  C       0.065829     -2.815790      0.355814
  C       0.035889     -2.358974      1.722182
  C       2.190819     -2.120462      0.932019
  C       1.373808     -2.647359     -0.137028
  C       1.371929     -1.977505      2.069341
  N      -1.044888      0.138237     -0.506822
  C      -2.323519      0.413685      0.170496
  C      -3.105786      1.561719     -0.449528
  H      -3.935791      1.818740      0.207198
  H      -3.543073      1.304646     -1.415277
  H      -2.493664      2.456170     -0.566999
  C      -3.153976     -0.863006      0.232314
  H      -2.046347      0.698399      1.186584
  H      -4.069484     -0.680154      0.793150
  H      -3.436575     -1.199362     -0.766122
  H      -2.622938     -1.672426      0.730982
  C      -0.867643      0.375608     -1.749297
  C       0.468383      0.192150     -2.248882
  H      -1.671099      0.730151     -2.388729
  C       1.566197      0.357879     -1.413495
  C       2.765116      0.014244     -2.098830
  S       0.892917     -0.319161     -3.819425
  C       2.552061     -0.359296     -3.391149
  H       1.551144      1.294067     -0.588543
  H       3.752113      0.097033     -1.667419
  H       3.288434     -0.635941     -4.130636
  H      -0.776008     -3.195399     -0.205148
  H      -0.807525     -2.396516      2.395636
  H       1.679158     -1.569917      3.022001
  O       1.467880      2.377325      0.200687
  O       0.545645      0.956788      1.637354
  C       0.990836      2.110833      1.308079
  C       0.939851      3.158145      2.382031
  H       0.899916      4.154348      1.949720
  H       1.850470      3.093462      2.980865
  H       0.096812      3.005202      3.051730
  H       3.245127     -1.895428      0.875584
  H       1.711523     -2.877048     -1.137089
39
Coordinates from ORCA-job reaction4-IEIP_ts_guess_scan_5-11_orca E -1288.398212964262
  Ir      0.598358     -0.727723      0.478577
  C       0.063695     -2.818231      0.362274
  C       0.032508     -2.360063      1.727846
  C       2.188908     -2.125442      0.940210
  C       1.372691     -2.653379     -0.128802
  C       1.368124     -1.978936      2.075854
  N      -1.044767      0.137387     -0.508782
  C      -2.322597      0.412249      0.168887
  C      -3.105885      1.558133     -0.453675
  H      -3.936894      1.814947      0.201850
  H      -3.541680      1.298830     -1.419533
  H      -2.495019      2.453341     -0.571984
  C      -3.150982     -0.865605      0.232866
  H      -2.045116      0.698836      1.184370
  H      -4.066399     -0.683327      0.794015
  H      -3.433671     -1.203745     -0.764937
  H      -2.618338     -1.673490      0.732374
  C      -0.869518      0.377548     -1.753579
  C       0.467067      0.200734     -2.258166
  H      -1.674450      0.735141     -2.389448
  C       1.562379      0.353028     -1.417280
  C       2.761970      0.012585     -2.103904
  S       0.892949     -0.298779     -3.831879
  C       2.551140     -0.347155     -3.400411
  H       1.550042      1.297253     -0.589520
  H       3.748279      0.089245     -1.669763
  H       3.288481     -0.617894     -4.141019
  H      -0.777866     -3.197636     -0.199267
  H      -0.811774     -2.395759      2.400195
  H       1.674485     -1.570159      3.028264
  O       1.471902      2.381026      0.199528
  O       0.545717      0.958308      1.638984
  C       0.993880      2.112316      1.309268
  C       0.944413      3.159336      2.383326
  H       0.905315      4.155760      1.951347
  H       1.855154      3.093434      2.981800
  H       0.101410      3.006907      3.053097
  H       3.243865     -1.903235      0.885375
  H       1.711595     -2.886596     -1.127618
39
Coordinates from ORCA-job reaction4-IEIP_ts_guess_scan_5-11_orca E -1288.398294817177
  Ir      0.596525     -0.728549      0.480916
  C       0.057301     -2.819118      0.373400
  C       0.023141     -2.358180      1.737280
  C       2.181765     -2.127735      0.953704
  C       1.367859     -2.658443     -0.115145
  C       1.357352     -1.976097      2.086536
  N      -1.042350      0.133262     -0.509270
  C      -2.320730      0.406308      0.167752
  C      -3.106173      1.551063     -0.454291
  H      -3.938053      1.805743      0.200998
  H      -3.541035      1.291572     -1.420487
  H      -2.497177      2.447674     -0.571642
  C      -3.147522     -0.872618      0.231991
  H      -2.043631      0.693050      1.183326
  H      -4.063096     -0.691545      0.793351
  H      -3.429897     -1.211149     -0.765744
  H      -2.613681     -1.679626      0.731464
  C      -0.867159      0.379098     -1.754481
  C       0.468864      0.207540     -2.265898
  H      -1.673226      0.741010     -2.386075
  C       1.563725      0.339017     -1.420783
  C       2.762928      0.010420     -2.114599
  S       0.893841     -0.258052     -3.849523
  C       2.551705     -0.322103     -3.418192
  H       1.556072      1.293102     -0.589990
  H       3.749386      0.076081     -1.678902
  H       3.288544     -0.578995     -4.164148
  H      -0.783338     -3.199017     -0.189148
  H      -0.822814     -2.390893      2.407541
  H       1.661619     -1.564313      3.038318
  O       1.484850      2.378163      0.197942
  O       0.541008      0.960402      1.636836
  C       0.998808      2.110532      1.307503
  C       0.951888      3.159541      2.378932
  H       0.920603      4.155531      1.945278
  H       1.859866      3.088829      2.981052
  H       0.105226      3.013012      3.045277
  H       3.237468     -1.908572      0.901642
  H       1.708906     -2.896753     -1.111982
39
Coordinates from ORCA-job reaction4-IEIP_ts_guess_scan_5-11_orca E -1288.398325134983
  Ir      0.597321     -0.732064      0.484653
  C       0.054826     -2.822205      0.384961
  C       0.018187     -2.357539      1.747170
  C       2.179042     -2.132390      0.967165
  C       1.366832     -2.665446     -0.101610
  C       1.351745     -1.975383      2.097399
  N      -1.041284      0.129754     -0.510756
  C      -2.321139      0.400481      0.165335
  C      -3.106456      1.547394     -0.452928
  H      -3.939011      1.799096      0.202635
  H      -3.540520      1.291635     -1.420467
  H      -2.497804      2.444786     -0.566106
  C      -3.149100     -0.878044      0.224325
  H      -2.045645      0.683827      1.182315
  H      -4.065560     -0.697894      0.784545
  H      -3.429921     -1.213341     -0.774939
  H      -2.616995     -1.686903      0.722372
  C      -0.866405      0.381370     -1.754724
  C       0.467633      0.212798     -2.269909
  H      -1.673710      0.745170     -2.383577
  C       1.562395      0.327949     -1.422344
  C       2.761316      0.009873     -2.121077
  S       0.891648     -0.228439     -3.860233
  C       2.550011     -0.295883     -3.431324
  H       1.559081      1.286817     -0.590873
  H       3.747733      0.065913     -1.683964
  H       3.286734     -0.538839     -4.182027
  H      -0.785067     -3.202668     -0.178309
  H      -0.829262     -2.386806      2.415672
  H       1.654532     -1.560572      3.048357
  O       1.492982      2.373493      0.195277
  O       0.541754      0.962160      1.635528
  C       1.003936      2.108833      1.304787
  C       0.960544      3.161425      2.372556
  H       0.932880      4.156242      1.936038
  H       1.868087      3.089260      2.975181
  H       0.113085      3.019627      3.038929
  H       3.235399     -1.915963      0.917439
  H       1.709547     -2.908338     -1.096732
39
Coordinates from ORCA-job reaction4-IEIP_ts_guess_scan_5-11_orca E -1288.398336535271
  Ir      0.596897     -0.734475      0.487346
  C       0.053703     -2.823954      0.392502
  C       0.013823     -2.356512      1.753511
  C       2.176959     -2.134223      0.977970
  C       1.367180     -2.669216     -0.091569
  C       1.346514     -1.973685      2.105550
  N      -1.040278      0.126640     -0.511321
  C      -2.321347      0.394341      0.164515
  C      -3.106399      1.544457     -0.448285
  H      -3.939125      1.792617      0.208370
  H      -3.540340      1.293784     -1.417212
  H      -2.497865      2.442546     -0.556603
  C      -3.150235     -0.883922      0.216224
  H      -2.047416      0.672906      1.183256
  H      -4.067674     -0.705597      0.775397
  H      -3.429316     -1.214516     -0.785102
  H      -2.619833     -1.695490      0.711663
  C      -0.865648      0.383902     -1.753655
  C       0.466425      0.218211     -2.271482
  H      -1.674073      0.749357     -2.380230
  C       1.561912      0.319200     -1.423190
  C       2.760155      0.008625     -2.125555
  S       0.890313     -0.192446     -3.869673
  C       2.547336     -0.280066     -3.439685
  H       1.563117      1.279900     -0.591186
  H       3.746523      0.052314     -1.687014
  H       3.283017     -0.517598     -4.193139
  H      -0.784900     -3.205163     -0.172193
  H      -0.835333     -2.383431      2.419934
  H       1.647298     -1.556363      3.056065
  O       1.501317      2.368229      0.193025
  O       0.541739      0.964357      1.633113
  C       1.008310      2.107632      1.301537
  C       0.966814      3.164386      2.365509
  H       0.942615      4.157803      1.925705
  H       1.873400      3.091558      2.969497
  H       0.118098      3.027285      3.031328
  H       3.233713     -1.919181      0.931038
  H       1.711972     -2.915023     -1.085221
39
Coordinates from ORCA-job reaction4-IEIP_ts_guess_scan_5-11_orca E -1288.398349196455
  Ir      0.595754     -0.735224      0.488286
  C       0.053330     -2.824117      0.391815
  C       0.011232     -2.356859      1.752919
  C       2.175693     -2.134373      0.980908
  C       1.367661     -2.669046     -0.090121
  C       1.343436     -1.974062      2.107150
  N      -1.039217      0.126071     -0.509904
  C      -2.320154      0.393647      0.166294
  C      -3.104297      1.545552     -0.444495
  H      -3.936475      1.793370      0.212978
  H      -3.538928      1.296898     -1.413632
  H      -2.494998      2.443260     -0.551663
  C      -3.149863     -0.884144      0.215385
  H      -2.046314      0.670371      1.185553
  H      -4.067489     -0.706195      0.774372
  H      -3.428647     -1.212782     -0.786672
  H      -2.620273     -1.697091      0.709580
  C      -0.864671      0.382894     -1.752125
  C       0.466701      0.215700     -2.269992
  H      -1.673332      0.747545     -2.378967
  C       1.563244      0.315076     -1.422857
  C       2.761286      0.008908     -2.127091
  S       0.889354     -0.195333     -3.868585
  C       2.547486     -0.274631     -3.442357
  H       1.565111      1.274966     -0.591051
  H       3.748114      0.053655     -1.689786
  H       3.282873     -0.506677     -4.197830
  H      -0.784243     -3.205202     -0.174498
  H      -0.839048     -2.383714      2.417917
  H       1.642767     -1.556744      3.058125
  O       1.502828      2.364358      0.191645
  O       0.541153      0.963778      1.632208
  C       1.008310      2.106259      1.299665
  C       0.965459      3.165343      2.361645
  H       0.941081      4.157822      1.919765
  H       1.871637      3.094212      2.966428
  H       0.116353      3.029292      3.027203
  H       3.232501     -1.919183      0.935878
  H       1.713955     -2.914409     -1.083352
39
Coordinates from ORCA-job reaction4-IEIP_ts_guess_scan_5-11_orca E -1288.398352118685
  Ir      0.596283     -0.735274      0.488342
  C       0.055045     -2.824261      0.389650
  C       0.011359     -2.357630      1.751054
  C       2.176625     -2.134036      0.981647
  C       1.369863     -2.668298     -0.090601
  C       1.343187     -1.974746      2.107073
  N      -1.039343      0.126549     -0.509330
  C      -2.320041      0.393903      0.167348
  C      -3.103422      1.546944     -0.442357
  H      -3.935356      1.794748      0.215449
  H      -3.538253      1.299479     -1.411700
  H      -2.493465      2.444273     -0.548820
  C      -3.150250     -0.883621      0.214660
  H      -2.046176      0.669407      1.186900
  H      -4.067944     -0.706116      0.773707
  H      -3.428981     -1.210832     -0.787880
  H      -2.621065     -1.697476      0.707759
  C      -0.865361      0.382700     -1.751922
  C       0.466008      0.215536     -2.269637
  H      -1.674233      0.746779     -2.378780
  C       1.562714      0.315694     -1.422969
  C       2.760592      0.007790     -2.126489
  S       0.888716     -0.197548     -3.867929
  C       2.546600     -0.277229     -3.441511
  H       1.565119      1.274447     -0.590891
  H       3.747458      0.052722     -1.689309
  H       3.281933     -0.510432     -4.196691
  H      -0.781669     -3.205431     -0.177870
  H      -0.839615     -2.385196      2.415149
  H       1.641407     -1.557922      3.058613
  O       1.502679      2.364281      0.191175
  O       0.541897      0.963777      1.632382
  C       1.008123      2.106740      1.299194
  C       0.964088      3.166196      2.360796
  H       0.937959      4.158374      1.918322
  H       1.870685      3.096781      2.965137
  H       0.115528      3.029239      3.026840
  H       3.233383     -1.918338      0.937893
  H       1.717294     -2.912783     -1.083664
39
Coordinates from ORCA-job reaction4-IEIP_ts_guess_scan_5-11_orca E -1288.398356905915
  Ir      0.597280     -0.735754      0.489141
  C       0.058509     -2.824971      0.385948
  C       0.008869     -2.359321      1.747715
  C       2.177336     -2.133625      0.987809
  C       1.375307     -2.667433     -0.088223
  C       1.339046     -1.976003      2.109786
  N      -1.038762      0.126770     -0.507539
  C      -2.319125      0.392785      0.170223
  C      -3.100641      1.549541     -0.435108
  H      -3.932037      1.796311      0.223788
  H      -3.535884      1.306456     -1.405353
  H      -2.489059      2.446105     -0.538434
  C      -3.150745     -0.884019      0.211257
  H      -2.045427      0.663815      1.190956
  H      -4.068599     -0.708376      0.770677
  H      -3.429337     -1.206147     -0.792971
  H      -2.622616     -1.700931      0.700416
  C      -0.866301      0.382550     -1.750709
  C       0.464501      0.215879     -2.269453
  H      -1.676133      0.745763     -2.376783
  C       1.562067      0.313663     -1.423852
  C       2.759130      0.005393     -2.128092
  S       0.886242     -0.195331     -3.868966
  C       2.543698     -0.278176     -3.443442
  H       1.567230      1.270908     -0.590448
  H       3.746418      0.048839     -1.691775
  H       3.278368     -0.511279     -4.199313
  H      -0.775234     -3.206580     -0.185624
  H      -0.844801     -2.388166      2.408305
  H       1.633074     -1.559817      3.062915
  O       1.505801      2.362413      0.189365
  O       0.543374      0.964373      1.632022
  C       1.009226      2.107355      1.297025
  C       0.961947      3.168998      2.356280
  H       0.932261      4.159942      1.911218
  H       1.869130      3.104142      2.960210
  H       0.114166      3.030862      3.023020
  H       3.234127     -1.917206      0.948907
  H       1.726964     -2.910541     -1.080158
39
Coordinates from ORCA-job reaction4-IEIP_ts_guess_scan_5-11_orca E -1288.398360762621
  Ir      0.598358     -0.736239      0.490185
  C       0.062287     -2.825945      0.382853
  C       0.004835     -2.360957      1.744704
  C       2.177404     -2.132920      0.997008
  C       1.381645     -2.666887     -0.083502
  C       1.332578     -1.976726      2.114338
  N      -1.037950      0.126337     -0.505540
  C      -2.318175      0.390555      0.173185
  C      -3.097618      1.551763     -0.426555
  H      -3.928637      1.796842      0.233442
  H      -3.533022      1.314197     -1.398075
  H      -2.484269      2.447594     -0.525560
  C      -3.151526     -0.885335      0.206504
  H      -2.044810      0.655935      1.195448
  H      -4.069348     -0.712125      0.766755
  H      -3.430288     -1.200965     -0.799747
  H      -2.624450     -1.706038      0.690462
  C      -0.867093      0.382507     -1.749027
  C       0.462841      0.216490     -2.269691
  H      -1.678116      0.745284     -2.373813
  C       1.561585      0.310069     -1.425295
  C       2.757452      0.002640     -2.131575
  S       0.882679     -0.189655     -3.871326
  C       2.540023     -0.276265     -3.447766
  H       1.570553      1.266430     -0.590018
  H       3.745366      0.043457     -1.696455
  H       3.273679     -0.507777     -4.205119
  H      -0.767646     -3.208424     -0.193642
  H      -0.852318     -2.391101      2.400719
  H       1.620975     -1.560769      3.069298
  O       1.511381      2.359778      0.187385
  O       0.544903      0.965415      1.631107
  C       1.011502      2.107725      1.294332
  C       0.960977      3.172128      2.350571
  H       0.927795      4.161616      1.902459
  H       1.868775      3.112216      2.954061
  H       0.113953      3.033124      3.018034
  H       3.234259     -1.915880      0.964344
  H       1.738832     -2.908902     -1.073747
39
Coordinates from ORCA-job reaction4-IEIP_ts_guess_scan_5-11_orca E -1288.398364539709
  Ir      0.599883     -0.736774      0.491459
  C       0.067783     -2.827447      0.378960
  C      -0.001529     -2.363072      1.740633
  C       2.177037     -2.131397      1.011227
  C       1.390917     -2.666316     -0.075646
  C       1.322201     -1.977001      2.121431
  N      -1.036975      0.125298     -0.502931
  C      -2.317198      0.386894      0.176889
  C      -3.093838      1.554310     -0.414698
  H      -3.924644      1.796552      0.246587
  H      -3.529084      1.324770     -1.388197
  H      -2.478208      2.449278     -0.507044
  C      -3.152948     -0.887659      0.199250
  H      -2.044377      0.644070      1.201356
  H      -4.070324     -0.718179      0.761372
  H      -3.432582     -1.193622     -0.809752
  H      -2.626948     -1.713822      0.675107
  C      -0.868117      0.382612     -1.746520
  C       0.460519      0.217282     -2.270209
  H      -1.680681      0.745328     -2.369381
  C       1.561010      0.304951     -1.427571
  C       2.755041     -0.000613     -2.137563
  S       0.876873     -0.181550     -3.874769
  C       2.534542     -0.272698     -3.454766
  H       1.575475      1.260568     -0.589686
  H       3.743939      0.036710     -1.704385
  H       3.266557     -0.501592     -4.214498
  H      -0.756424     -3.211545     -0.204600
  H      -0.863864     -2.395072      2.389744
  H       1.601856     -1.560915      3.078952
  O       1.520451      2.356067      0.184988
  O       0.547083      0.967099      1.629450
  C       1.015575      2.107993      1.290721
  C       0.961179      3.176226      2.342778
  H       0.923089      4.163738      1.890628
  H       1.870152      3.123166      2.945122
  H       0.115530      3.036052      3.011665
  H       3.233931     -1.913518      0.987824
  H       1.756488     -2.906979     -1.063186
39
Coordinates from ORCA-job reaction4-IEIP_ts_guess_scan_5-11_orca E -1288.398367172036
  Ir      0.601181     -0.737042      0.492310
  C       0.073660     -2.828923      0.375099
  C      -0.008082     -2.364984      1.736355
  C       2.176402     -2.128842      1.025766
  C       1.400563     -2.665507     -0.067367
  C       1.311100     -1.976284      2.128490
  N      -1.036548      0.123982     -0.500801
  C      -2.316858      0.383085      0.179921
  C      -3.091018      1.556136     -0.403889
  H      -3.921956      1.795259      0.258335
  H      -3.525730      1.334292     -1.379399
  H      -2.473537      2.450496     -0.489492
  C      -3.154718     -0.890229      0.192115
  H      -2.044566      0.632511      1.206430
  H      -4.071167     -0.724594      0.756876
  H      -3.435984     -1.186673     -0.819278
  H      -2.629189     -1.721571      0.659505
  C      -0.869321      0.382843     -1.744203
  C       0.458125      0.217949     -2.270837
  H      -1.683091      0.746100     -2.365253
  C       1.560282      0.300593     -1.429947
  C       2.752474     -0.003445     -2.143753
  S       0.870598     -0.174544     -3.877847
  C       2.529022     -0.269329     -3.461687
  H       1.580018      1.255734     -0.589878
  H       3.742295      0.030721     -1.712414
  H       3.259327     -0.495898     -4.223746
  H      -0.744571     -3.215081     -0.215437
  H      -0.875700     -2.398991      2.378293
  H       1.581386     -1.559595      3.088460
  O       1.530170      2.352567      0.183258
  O       0.548970      0.968869      1.627457
  C       1.020280      2.107990      1.287617
  C       0.963364      3.179626      2.336042
  H       0.920393      4.165393      1.880450
  H       1.874042      3.132912      2.936330
  H       0.119653      3.038336      3.007075
  H       3.233211     -1.909925      1.011778
  H       1.774889     -2.904747     -1.051995
39
Coordinates from ORCA-job reaction4-IEIP_ts_guess_scan_5-11_orca E -1288.398368638734
  Ir      0.601930     -0.737022      0.492537
  C       0.079378     -2.830151      0.371181
  C      -0.013769     -2.366640      1.731962
  C       2.175753     -2.125408      1.038289
  C       1.409543     -2.664277     -0.060315
  C       1.300965     -1.974779      2.134190
  N      -1.036929      0.122813     -0.499533
  C      -2.317309      0.379978      0.181897
  C      -3.089774      1.557101     -0.395939
  H      -3.921128      1.793348      0.266776
  H      -3.523723      1.341277     -1.373132
  H      -2.471234      2.451248     -0.475922
  C      -3.156551     -0.892494      0.186534
  H      -2.045385      0.623583      1.209898
  H      -4.071746     -0.730182      0.754273
  H      -3.439948     -1.181290     -0.826473
  H      -2.630789     -1.727830      0.646571
  C      -0.870774      0.383160     -1.742600
  C       0.455858      0.218325     -2.271407
  H      -1.685170      0.747321     -2.362376
  C       1.559319      0.298011     -1.431975
  C       2.750037     -0.005308     -2.148802
  S       0.864885     -0.170793     -3.879810
  C       2.524269     -0.267681     -3.466929
  H       1.583150      1.252889     -0.590757
  H       3.740542      0.026920     -1.718856
  H       3.253087     -0.493003     -4.230759
  H      -0.733371     -3.218514     -0.225417
  H      -0.886102     -2.402655      2.367373
  H       1.562490     -1.557196      3.096217
  O       1.538782      2.349887      0.182478
  O       0.550168      0.970448      1.625518
  C       1.024863      2.107804      1.285609
  C       0.967397      3.181753      2.331691
  H       0.919786      4.166275      1.873807
  H       1.880377      3.140103      2.928855
  H       0.126286      3.039345      3.005693
  H       3.232348     -1.905226      1.032663
  H       1.791860     -2.901947     -1.042271
39
Coordinates from ORCA-job reaction4-IEIP_ts_guess_scan_5-11_orca E -1288.398369560228
  Ir      0.601980     -0.736825      0.492270
  C       0.084257     -2.831006      0.367424
  C      -0.017899     -2.368043      1.727864
  C       2.175281     -2.121736      1.047267
  C       1.416834     -2.662675     -0.055552
  C       1.293174     -1.973070      2.137861
  N      -1.037915      0.122095     -0.499159
  C      -2.318227      0.378134      0.182860
  C      -3.089957      1.557368     -0.391560
  H      -3.921759      1.791538      0.271334
  H      -3.523254      1.345091     -1.369815
  H      -2.471152      2.451638     -0.467996
  C      -3.158026     -0.893996      0.183468
  H      -2.046387      0.618629      1.211614
  H      -4.072016     -0.733907      0.753771
  H      -3.443444     -1.178176     -0.830269
  H      -2.631607     -1.731653      0.638554
  C      -0.872363      0.383378     -1.741979
  C       0.453907      0.218397     -2.271896
  H      -1.686887      0.748365     -2.361143
  C       1.558134      0.297178     -1.433410
  C       2.747984     -0.006368     -2.151814
  S       0.860773     -0.170119     -3.880713
  C       2.520910     -0.267808     -3.469806
  H       1.584432      1.251976     -0.592167
  H       3.738820      0.025107     -1.722552
  H       3.248734     -0.492965     -4.234615
  H      -0.724120     -3.221339     -0.233791
  H      -0.893874     -2.405840      2.358145
  H       1.547706     -1.554625      3.101406
  O       1.544900      2.348225      0.182392
  O       0.550438      0.971605      1.623923
  C       1.028476      2.107557      1.284677
  C       0.972200      3.182477      2.329915
  H       0.920415      4.166331      1.870990
  H       1.887812      3.144260      2.923269
  H       0.134088      3.038907      3.007353
  H       3.231585     -1.900179      1.048070
  H       1.805415     -2.898734     -1.035453
39
Coordinates from ORCA-job reaction4-IEIP_ts_guess_scan_5-11_orca E -1288.398370454061
  Ir      0.601552     -0.736641      0.491849
  C       0.087923     -2.831603      0.364221
  C      -0.020498     -2.369286      1.724513
  C       2.175025     -2.118623      1.052857
  C       1.422064     -2.661074     -0.052908
  C       1.287981     -1.971784      2.139840
  N      -1.039021      0.121843     -0.499298
  C      -2.319148      0.377435      0.183208
  C      -3.090788      1.557353     -0.389857
  H      -3.922873      1.790373      0.273103
  H      -3.523727      1.346567     -1.368588
  H      -2.472131      2.451858     -0.464668
  C      -3.159002     -0.894663      0.182475
  H      -2.047168      0.616939      1.212149
  H      -4.072161     -0.735670      0.754422
  H      -3.445817     -1.176854     -0.831415
  H      -2.631970     -1.733296      0.635049
  C      -0.873820      0.383406     -1.742063
  C       0.452383      0.218219     -2.272280
  H      -1.688267      0.748803     -2.361088
  C       1.556937      0.297271     -1.434260
  C       2.746471     -0.006784     -2.153069
  S       0.858425     -0.171184     -3.880990
  C       2.518902     -0.268881     -3.470818
  H       1.584294      1.252166     -0.593674
  H       3.737390      0.024809     -1.723999
  H       3.246222     -0.494423     -4.235986
  H      -0.717330     -3.223448     -0.240186
  H      -0.898970     -2.408487      2.351223
  H       1.537654     -1.552762      3.104415
  O       1.548315      2.347408      0.182479
  O       0.550086      0.972338      1.622810
  C       1.030825      2.107391      1.284368
  C       0.976504      3.182303      2.329772
  H       0.920885      4.165886      1.870656
  H       1.894759      3.146394      2.919170
  H       0.141458      3.037399      3.010659
  H       3.231040     -1.895800      1.058090
  H       1.814968     -2.895709     -1.031440
39
Coordinates from ORCA-job reaction4-IEIP_ts_guess_scan_5-11_orca E -1288.398371435190
  Ir      0.600999     -0.736539      0.491587
  C       0.089956     -2.831965      0.362252
  C      -0.021749     -2.370184      1.722536
  C       2.174902     -2.116744      1.055526
  C       1.424855     -2.659932     -0.051832
  C       1.285360     -1.971199      2.140663
  N      -1.039779      0.121888     -0.499557
  C      -2.319725      0.377433      0.183244
  C      -3.091555      1.557281     -0.389708
  H      -3.923702      1.789962      0.273306
  H      -3.524434      1.346662     -1.368497
  H      -2.473106      2.451948     -0.464263
  C      -3.159440     -0.894748      0.182608
  H      -2.047556      0.617103      1.212088
  H      -4.072315     -0.735999      0.755085
  H      -3.446748     -1.176687     -0.831208
  H      -2.632123     -1.733506      0.634605
  C      -0.874795      0.383276     -1.742420
  C       0.451443      0.217981     -2.272563
  H      -1.689209      0.748623     -2.361497
  C       1.556036      0.297481     -1.434637
  C       2.745614     -0.006899     -2.153194
  S       0.857643     -0.172182     -3.881122
  C       2.518061     -0.269698     -3.470838
  H       1.583508      1.252579     -0.594749
  H       3.736489      0.025002     -1.724052
  H       3.245277     -0.495567     -4.236014
  H      -0.713559     -3.224698     -0.243883
  H      -0.901528     -2.410217      2.347357
  H       1.532516     -1.551965      3.105797
  O       1.549426      2.347172      0.182407
  O       0.549579      0.972703      1.622226
  C       1.031908      2.107352      1.284276
  C       0.979319      3.181825      2.330217
  H       0.920509      4.165349      1.871322
  H       1.899732      3.147468      2.916321
  H       0.146830      3.035559      3.013899
  H       3.230717     -1.893054      1.063131
  H       1.820011     -2.893674     -1.029679
39
Coordinates from ORCA-job reaction4-IEIP_ts_guess_scan_5-11_orca E -1288.398372312706
  Ir      0.600588     -0.736509      0.491542
  C       0.090572     -2.832144      0.361537
  C      -0.022132     -2.370664      1.721864
  C       2.174814     -2.116085      1.056283
  C       1.425668     -2.659407     -0.051609
  C       1.284553     -1.971170      2.140879
  N      -1.040083      0.122024     -0.499730
  C      -2.319942      0.377666      0.183149
  C      -3.091976      1.557226     -0.390166
  H      -3.924052      1.790035      0.272895
  H      -3.524949      1.346220     -1.368827
  H      -2.473633      2.451933     -0.465091
  C      -3.159511     -0.894599      0.183010
  H      -2.047663      0.617819      1.211845
  H      -4.072501     -0.735683      0.755260
  H      -3.446651     -1.177020     -0.830721
  H      -2.632205     -1.733125      0.635434
  C      -0.875211      0.383090     -1.742727
  C       0.451053      0.217779     -2.272734
  H      -1.689685      0.748156     -2.361869
  C       1.555565      0.297514     -1.434710
  C       2.745329     -0.006802     -2.152900
  S       0.857772     -0.172554     -3.881251
  C       2.517966     -0.269880     -3.470565
  H       1.582666      1.252815     -0.595226
  H       3.736145      0.025350     -1.723649
  H       3.245288     -0.495798     -4.235635
  H      -0.712316     -3.225228     -0.245196
  H      -0.902319     -2.411002      2.346087
  H       1.530967     -1.551974      3.106218
  O       1.549126      2.347255      0.182169
  O       0.549261      0.972820      1.622079
  C       1.032129      2.107396      1.284243
  C       0.980654      3.181431      2.330659
  H       0.919304      4.164961      1.872070
  H       1.902652      3.148277      2.914328
  H       0.150079      3.033892      3.016362
  H       3.230538     -1.891997      1.064692
  H       1.821510     -2.892827     -1.029260
