39
Generated by autodE on: 2023-08-14. E = -1288.400993 Ha
Ir    0.61462  -0.72289   0.45048
C     0.11725  -2.82954   0.33954
C    -0.01362  -2.36962   1.69771
C     2.18751  -2.08988   1.05053
C     1.45682  -2.65076  -0.05915
C     1.27928  -1.94833   2.12464
N    -1.05104   0.12774  -0.50989
C    -2.32254   0.37556   0.18883
C    -3.10419   1.55763  -0.36600
H    -3.93119   1.78015   0.30679
H    -3.54493   1.35408  -1.34281
H    -2.49025   2.45568  -0.43727
C    -3.15854  -0.89938   0.18601
H    -2.03847   0.60659   1.21636
H    -4.06363  -0.74934   0.77300
H    -3.45923  -1.17111  -0.82668
H    -2.62206  -1.74118   0.62108
C    -0.89512   0.40569  -1.75038
C     0.43045   0.22591  -2.27432
H    -1.70622   0.78995  -2.36150
C     1.51053   0.21771  -1.39541
C     2.71375  -0.08013  -2.10052
S     0.87029  -0.09859  -3.88270
C     2.51642  -0.26774  -3.43438
H     1.57390   1.19569  -0.61602
H     3.69269  -0.09649  -1.64401
H     3.25759  -0.47472  -4.19137
H    -0.67444  -3.23506  -0.27367
H    -0.90023  -2.41429   2.31209
H     1.51020  -1.51922   3.08947
O     1.57913   2.35644   0.16669
O     0.54861   0.98654   1.58711
C     1.04527   2.11910   1.25944
C     0.98514   3.19056   2.30923
H     0.94306   4.17613   1.85286
H     1.89495   3.14518   2.91074
H     0.13968   3.05006   2.97809
H     3.24279  -1.86553   1.07546
H     1.86517  -2.89341  -1.02933
