39
Coordinates from ORCA-job reaction4-IEIP_ts_guess_scan_12-12_orca E -1288.404467531941
  Ir      0.613336     -0.732717      0.415625
  C       0.146357     -2.844637      0.334668
  C      -0.095304     -2.394149      1.681620
  C       2.144270     -2.061703      1.194189
  C       1.518626     -2.657187      0.047645
  C       1.138984     -1.932054      2.195919
  N      -1.073781      0.112920     -0.512478
  C      -2.348117      0.295731      0.199041
  C      -3.144404      1.505996     -0.268064
  H      -3.976681      1.664685      0.415797
  H      -3.577706      1.372488     -1.260201
  H      -2.542119      2.414786     -0.267423
  C      -3.170177     -0.984431      0.099127
  H      -2.070711      0.456046      1.242057
  H      -4.077328     -0.891833      0.694994
  H      -3.466687     -1.180750     -0.932041
  H      -2.623719     -1.851903      0.465624
  C      -0.925307      0.478807     -1.726732
  C       0.389210      0.308039     -2.250985
  H      -1.733863      0.914200     -2.305114
  C       1.417274      0.039892     -1.347032
  C       2.632814     -0.190632     -2.061152
  S       0.888935      0.307730     -3.873833
  C       2.491848     -0.072039     -3.411300
  H       1.633235      1.160210     -0.615919
  H       3.586134     -0.378816     -1.588661
  H       3.257914     -0.169518     -4.165607
  H      -0.580942     -3.284474     -0.331979
  H      -1.027930     -2.445965      2.222214
  H       1.282206     -1.484811      3.169487
  O       1.758084      2.281375      0.085867
  O       0.582711      1.039575      1.494280
  C       1.157426      2.116225      1.167678
  C       1.135602      3.245222      2.153883
  H       1.009587      4.197624      1.643754
  H       2.096429      3.281929      2.670128
  H       0.353812      3.111627      2.895943
  H       3.192708     -1.835458      1.311313
  H       2.006645     -2.912841     -0.881590
39
Coordinates from ORCA-job reaction4-IEIP_ts_guess_scan_12-12_orca E -1288.404712919727
  Ir      0.612703     -0.733307      0.413435
  C       0.145532     -2.847293      0.336267
  C      -0.093684     -2.398406      1.684089
  C       2.143765     -2.063854      1.193223
  C       1.517178     -2.660082      0.047636
  C       1.139702     -1.935129      2.195758
  N      -1.076950      0.110973     -0.510814
  C      -2.350662      0.294838      0.201740
  C      -3.145419      1.506091     -0.265391
  H      -3.977690      1.665628      0.418258
  H      -3.578519      1.373239     -1.257723
  H      -2.542157      2.414254     -0.264480
  C      -3.174364     -0.984223      0.101806
  H      -2.072919      0.454743      1.244749
  H      -4.081263     -0.890613      0.697898
  H      -3.471453     -1.180017     -0.929308
  H      -2.628967     -1.852461      0.468019
  C      -0.925404      0.477935     -1.730228
  C       0.392894      0.309477     -2.256789
  H      -1.733445      0.914375     -2.308472
  C       1.417338      0.035842     -1.350419
  C       2.634868     -0.193670     -2.062262
  S       0.897746      0.316964     -3.878275
  C       2.498296     -0.069069     -3.412420
  H       1.637639      1.167394     -0.619607
  H       3.586676     -0.384600     -1.587634
  H       3.266596     -0.165054     -4.164565
  H      -0.582459     -3.287844     -0.329180
  H      -1.025153     -2.451353      2.226453
  H       1.284003     -1.488283      3.169340
  O       1.761782      2.288249      0.082799
  O       0.581537      1.041727      1.493776
  C       1.158312      2.119508      1.166612
  C       1.133956      3.248308      2.152573
  H       1.008020      4.200631      1.642210
  H       2.093820      3.285650      2.670536
  H       0.350895      3.113905      2.893048
  H       3.192417     -1.838323      1.309879
  H       2.004204     -2.916956     -0.881799
39
Coordinates from ORCA-job reaction4-IEIP_ts_guess_scan_12-12_orca E -1288.404810218546
  Ir      0.611690     -0.733670      0.412843
  C       0.141934     -2.848322      0.341612
  C      -0.094597     -2.400608      1.690020
  C       2.141328     -2.066171      1.195384
  C       1.513401     -2.662947      0.051186
  C       1.138405     -1.937259      2.198793
  N      -1.077733      0.109705     -0.509342
  C      -2.351133      0.293209      0.202208
  C      -3.145408      1.504139     -0.266534
  H      -3.979060      1.663769      0.415462
  H      -3.576351      1.370787     -1.259727
  H      -2.542355      2.412421     -0.264856
  C      -3.174227     -0.986205      0.102467
  H      -2.073772      0.453577      1.245231
  H      -4.081446     -0.892807      0.698146
  H      -3.470726     -1.182608     -0.928666
  H      -2.628429     -1.853980      0.469364
  C      -0.925158      0.478869     -1.730376
  C       0.393702      0.312467     -2.260590
  H      -1.734020      0.916023     -2.306726
  C       1.415228      0.029255     -1.354210
  C       2.634388     -0.195826     -2.064905
  S       0.901248      0.329854     -3.881226
  C       2.501340     -0.057281     -3.414152
  H       1.642112      1.172941     -0.625421
  H       3.584986     -0.391223     -1.589619
  H       3.271750     -0.146362     -4.164970
  H      -0.587174     -3.288962     -0.322526
  H      -1.025225     -2.453036      2.233840
  H       1.284228     -1.490332      3.172112
  O       1.765699      2.292273      0.079509
  O       0.581896      1.042872      1.491273
  C       1.159605      2.120338      1.164070
  C       1.135721      3.248515      2.149895
  H       1.010693      4.201110      1.639796
  H       2.095295      3.284956      2.668520
  H       0.352021      3.114005      2.889586
  H       3.190385     -1.842385      1.311612
  H       1.999128     -2.921910     -0.878348
39
Coordinates from ORCA-job reaction4-IEIP_ts_guess_scan_12-12_orca E -1288.404873491145
  Ir      0.610851     -0.734795      0.412962
  C       0.138156     -2.849254      0.348679
  C      -0.096513     -2.402484      1.697492
  C       2.138537     -2.068633      1.200019
  C       1.509822     -2.666032      0.056998
  C       1.136139     -1.939169      2.204019
  N      -1.077875      0.108154     -0.509465
  C      -2.351940      0.289896      0.200834
  C      -3.147492      1.500359     -0.267185
  H      -3.982179      1.658217      0.413957
  H      -3.577046      1.367481     -1.261005
  H      -2.545605      2.409408     -0.263867
  C      -3.173796     -0.990259      0.100214
  H      -2.075374      0.449698      1.244204
  H      -4.081408     -0.898091      0.695506
  H      -3.469477     -1.186548     -0.931159
  H      -2.627157     -1.857477      0.467103
  C      -0.924475      0.481442     -1.729734
  C       0.393856      0.318112     -2.262807
  H      -1.734013      0.920758     -2.303290
  C       1.412558      0.021404     -1.357811
  C       2.633220     -0.197478     -2.067830
  S       0.906483      0.360550     -3.881400
  C       2.502445     -0.045347     -3.415966
  H       1.647620      1.178000     -0.632956
  H       3.581951     -0.402945     -1.593106
  H       3.273797     -0.130579     -4.166280
  H      -0.591781     -3.289937     -0.314516
  H      -1.026819     -2.453628      2.241947
  H       1.283138     -1.491752      3.176947
  O       1.770490      2.295004      0.075780
  O       0.584167      1.044919      1.487649
  C       1.162657      2.120986      1.160751
  C       1.140496      3.249695      2.145545
  H       1.016856      4.202292      1.635118
  H       2.100044      3.285004      2.664329
  H       0.356462      3.116317      2.885082
  H       3.187977     -1.846809      1.316370
  H       1.994601     -2.927289     -0.872389
39
Coordinates from ORCA-job reaction4-IEIP_ts_guess_scan_12-12_orca E -1288.404925466991
  Ir      0.609928     -0.738564      0.413977
  C       0.132601     -2.851315      0.357483
  C      -0.100992     -2.404391      1.706319
  C       2.134206     -2.073426      1.207341
  C       1.505009     -2.671528      0.065369
  C       1.131708     -1.941869      2.211499
  N      -1.077122      0.106206     -0.510220
  C      -2.352236      0.285860      0.199101
  C      -3.149294      1.496312     -0.266530
  H      -3.984414      1.651637      0.414600
  H      -3.578408      1.364985     -1.260737
  H      -2.548554      2.406136     -0.261049
  C      -3.173233     -0.994730      0.096544
  H      -2.076556      0.444182      1.243013
  H      -4.081302     -0.903926      0.691322
  H      -3.467940     -1.190033     -0.935306
  H      -2.626138     -1.861837      0.462865
  C      -0.923466      0.484062     -1.728322
  C       0.392896      0.321051     -2.263770
  H      -1.733708      0.925289     -2.299400
  C       1.409317      0.009994     -1.361085
  C       2.632073     -0.198216     -2.070474
  S       0.908319      0.380607     -3.880983
  C       2.505492     -0.020008     -3.416009
  H       1.652114      1.180034     -0.643703
  H       3.579371     -0.411845     -1.596621
  H       3.279675     -0.089920     -4.165038
  H      -0.598039     -3.291689     -0.305171
  H      -1.031649     -2.452649      2.250388
  H       1.279666     -1.493270      3.183738
  O       1.773414      2.295197      0.068195
  O       0.589221      1.046056      1.482502
  C       1.166871      2.120427      1.154530
  C       1.148209      3.251169      2.137208
  H       1.024471      4.203159      1.625733
  H       2.108886      3.286298      2.653929
  H       0.365656      3.119656      2.878703
  H       3.184114     -1.854198      1.324297
  H       1.989203     -2.935707     -0.863498
39
Coordinates from ORCA-job reaction4-IEIP_ts_guess_scan_12-12_orca E -1288.404953667433
  Ir      0.609342     -0.741144      0.414369
  C       0.131035     -2.852215      0.359870
  C      -0.104424     -2.404602      1.708258
  C       2.131775     -2.074490      1.212004
  C       1.504250     -2.673353      0.069644
  C       1.127756     -1.941927      2.215026
  N      -1.076489      0.104789     -0.511006
  C      -2.351762      0.283269      0.198797
  C      -3.149412      1.493950     -0.265004
  H      -3.984041      1.647967      0.416982
  H      -3.579301      1.363790     -1.259071
  H      -2.549031      2.404021     -0.258721
  C      -3.172397     -0.997421      0.094798
  H      -2.076130      0.440571      1.242890
  H      -4.080630     -0.907299      0.689388
  H      -3.466739     -1.191815     -0.937340
  H      -2.625269     -1.864791      0.460465
  C      -0.923286      0.485710     -1.727129
  C       0.392288      0.323108     -2.262277
  H      -1.733315      0.929256     -2.296879
  C       1.408482      0.006028     -1.361388
  C       2.631700     -0.197413     -2.071100
  S       0.910074      0.397813     -3.878163
  C       2.505404     -0.011727     -3.415825
  H       1.653440      1.179834     -0.649423
  H       3.578243     -0.417039     -1.598548
  H       3.279557     -0.078608     -4.165177
  H      -0.598721     -3.292782     -0.303647
  H      -1.036230     -2.451437      2.250473
  H       1.274572     -1.492361      3.186971
  O       1.773422      2.294366      0.063686
  O       0.591878      1.046080      1.478772
  C       1.168458      2.120015      1.150406
  C       1.151894      3.251707      2.132550
  H       1.027595      4.203441      1.620800
  H       2.113466      3.286785      2.647608
  H       0.370665      3.121029      2.875622
  H       3.181588     -1.855572      1.330419
  H       1.989665     -2.938343     -0.858357
39
Coordinates from ORCA-job reaction4-IEIP_ts_guess_scan_12-12_orca E -1288.404969409100
  Ir      0.609082     -0.743725      0.414631
  C       0.131203     -2.853601      0.360253
  C      -0.107284     -2.404852      1.707949
  C       2.130121     -2.074865      1.216262
  C       1.505275     -2.674832      0.073039
  C       1.123863     -1.941580      2.217385
  N      -1.076549      0.103616     -0.511183
  C      -2.351760      0.281257      0.199466
  C      -3.149127      1.493010     -0.261910
  H      -3.983124      1.645985      0.421100
  H      -3.579929      1.364889     -1.255857
  H      -2.548484      2.402901     -0.254363
  C      -3.172804     -0.998937      0.092935
  H      -2.075969      0.436756      1.243766
  H      -4.081218     -0.909373      0.687339
  H      -3.466879     -1.191393     -0.939638
  H      -2.626334     -1.867278      0.457207
  C      -0.923540      0.486875     -1.726097
  C       0.392022      0.323746     -2.260370
  H      -1.732856      0.932259     -2.295420
  C       1.408618      0.004273     -1.360600
  C       2.631854     -0.196316     -2.070951
  S       0.910527      0.405426     -3.875745
  C       2.505447     -0.006381     -3.415213
  H       1.653513      1.179184     -0.654258
  H       3.578240     -0.418616     -1.599365
  H       3.279488     -0.070760     -4.164902
  H      -0.596924     -3.294937     -0.304548
  H      -1.040496     -2.450959      2.247810
  H       1.268568     -1.491134      3.189216
  O       1.772185      2.293977      0.058662
  O       0.594576      1.045734      1.475667
  C       1.169818      2.119944      1.146271
  C       1.154648      3.252032      2.128311
  H       1.028707      4.203527      1.616534
  H       2.117309      3.287671      2.641273
  H       0.375153      3.121299      2.873207
  H       3.179623     -1.855462      1.336640
  H       1.992803     -2.940171     -0.853760
39
Coordinates from ORCA-job reaction4-IEIP_ts_guess_scan_12-12_orca E -1288.404978732475
  Ir      0.608967     -0.745520      0.414596
  C       0.132119     -2.854996      0.359854
  C      -0.109689     -2.405407      1.706875
  C       2.128713     -2.074709      1.220249
  C       1.506968     -2.675916      0.076049
  C       1.119931     -1.941289      2.219142
  N      -1.076811      0.102841     -0.510782
  C      -2.351799      0.279886      0.200475
  C      -3.148651      1.492735     -0.258888
  H      -3.982352      1.644939      0.424679
  H      -3.579813      1.366510     -1.252921
  H      -2.547634      2.402362     -0.249959
  C      -3.173230     -0.999833      0.091622
  H      -2.075746      0.433685      1.244938
  H      -4.081746     -0.910897      0.685982
  H      -3.467190     -1.190410     -0.941325
  H      -2.627250     -1.869100      0.454430
  C      -0.923904      0.487668     -1.725244
  C       0.391952      0.324292     -2.259224
  H      -1.732666      0.934364     -2.294290
  C       1.408807      0.003598     -1.360026
  C       2.631859     -0.195695     -2.071159
  S       0.910335      0.409128     -3.874460
  C       2.505300     -0.003126     -3.415088
  H       1.653477      1.179817     -0.658747
  H       3.578304     -0.419165     -1.600241
  H       3.279229     -0.065903     -4.165026
  H      -0.594077     -3.297469     -0.306294
  H      -1.044257     -2.451453      2.244406
  H       1.262112     -1.490270      3.191066
  O       1.770976      2.294840      0.054009
  O       0.596804      1.045530      1.473049
  C       1.170828      2.120271      1.142624
  C       1.156670      3.251965      2.125168
  H       1.029029      4.203519      1.613911
  H       2.120313      3.288023      2.636251
  H       0.378734      3.120479      2.871547
  H       3.177815     -1.854609      1.342888
  H       1.996942     -2.941494     -0.849396
39
Coordinates from ORCA-job reaction4-IEIP_ts_guess_scan_12-12_orca E -1288.404986708769
  Ir      0.609143     -0.746844      0.414416
  C       0.134199     -2.856569      0.358873
  C      -0.111940     -2.406495      1.705150
  C       2.127476     -2.073909      1.225071
  C       1.509900     -2.676640      0.079543
  C       1.115370     -1.941071      2.221025
  N      -1.077220      0.102354     -0.510029
  C      -2.352014      0.278741      0.201606
  C      -3.148131      1.492942     -0.255451
  H      -3.981837      1.644242      0.428325
  H      -3.579167      1.369035     -1.249822
  H      -2.546609      2.402211     -0.244528
  C      -3.173967     -1.000390      0.089965
  H      -2.075748      0.430401      1.246316
  H      -4.082500     -0.912381      0.684456
  H      -3.467962     -1.188557     -0.943407
  H      -2.628407     -1.870760      0.450754
  C      -0.924454      0.488368     -1.724339
  C       0.391703      0.324940     -2.258586
  H      -1.732855      0.936050     -2.293079
  C       1.408818      0.003508     -1.359758
  C       2.631474     -0.195554     -2.071971
  S       0.909259      0.410915     -3.873912
  C       2.504495     -0.001533     -3.415624
  H       1.653358      1.181835     -0.663657
  H       3.578149     -0.419454     -1.601692
  H       3.278157     -0.063538     -4.165897
  H      -0.589354     -3.300725     -0.309008
  H      -1.048118     -2.453131      2.239832
  H       1.254090     -1.489673      3.193265
  O       1.769696      2.296854      0.049295
  O       0.599273      1.045591      1.470554
  C       1.171950      2.120984      1.139128
  C       1.158785      3.251761      2.122653
  H       1.029292      4.203640      1.612438
  H       2.123461      3.288128      2.631768
  H       0.382479      3.118980      2.870476
  H       3.176006     -1.852788      1.350761
  H       2.003117     -2.942275     -0.844168
39
Coordinates from ORCA-job reaction4-IEIP_ts_guess_scan_12-12_orca E -1288.404991202154
  Ir      0.609502     -0.747159      0.414142
  C       0.136925     -2.857553      0.357294
  C      -0.113614     -2.407717      1.702979
  C       2.126632     -2.072397      1.229512
  C       1.513354     -2.676362      0.082497
  C       1.111183     -1.940891      2.222542
  N      -1.077496      0.102356     -0.509293
  C      -2.352197      0.278112      0.202469
  C      -3.147722      1.493452     -0.252566
  H      -3.981645      1.643880      0.431136
  H      -3.578347      1.371584     -1.247361
  H      -2.545785      2.402419     -0.239709
  C      -3.174519     -1.000582      0.088458
  H      -2.075832      0.427817      1.247437
  H      -4.082863     -0.913675      0.683402
  H      -3.468860     -1.186492     -0.945226
  H      -2.628977     -1.871860      0.447110
  C      -0.925048      0.488715     -1.723673
  C       0.391157      0.325408     -2.258640
  H      -1.733488      0.936682     -2.292128
  C       1.408538      0.003967     -1.359993
  C       2.630677     -0.196069     -2.073210
  S       0.907462      0.410319     -3.874245
  C       2.503065     -0.002340     -3.416749
  H       1.653069      1.184353     -0.667315
  H       3.577638     -0.419762     -1.603378
  H       3.276305     -0.064806     -4.167412
  H      -0.583892     -3.303356     -0.312425
  H      -1.051342     -2.455426      2.234851
  H       1.246284     -1.489445      3.195267
  O       1.768790      2.299033      0.046266
  O       0.601162      1.045935      1.468984
  C       1.172842      2.121780      1.137029
  C       1.160606      3.251582      2.121612
  H       1.030002      4.203942      1.612557
  H       2.126014      3.287847      2.629358
  H       0.385415      3.117679      2.870374
  H       3.174541     -1.850168      1.358369
  H       2.009833     -2.941612     -0.839581
39
Coordinates from ORCA-job reaction4-IEIP_ts_guess_scan_12-12_orca E -1288.404993819291
  Ir      0.610007     -0.746821      0.413887
  C       0.140611     -2.858081      0.354983
  C      -0.114944     -2.409251      1.700169
  C       2.126109     -2.070057      1.234189
  C       1.517763     -2.675022      0.085288
  C       1.106941     -1.940769      2.224026
  N      -1.077717      0.102539     -0.508647
  C      -2.352381      0.277691      0.203194
  C      -3.147185      1.494286     -0.249678
  H      -3.981373      1.643838      0.433881
  H      -3.577348      1.374613     -1.244937
  H      -2.544712      2.402864     -0.234766
  C      -3.175218     -1.000481      0.086763
  H      -2.076003      0.425260      1.248468
  H      -4.083117     -0.914828      0.682558
  H      -3.470320     -1.183827     -0.947168
  H      -2.629528     -1.872754      0.442795
  C      -0.925844      0.488628     -1.723187
  C       0.390145      0.325477     -2.259142
  H      -1.734657      0.936345     -2.291338
  C       1.407898      0.004589     -1.360644
  C       2.629430     -0.197111     -2.074771
  S       0.904959      0.407991     -3.875158
  C       2.500975     -0.004924     -3.418329
  H       1.652379      1.186820     -0.670053
  H       3.576710     -0.420242     -1.605290
  H       3.273647     -0.068648     -4.169469
  H      -0.577069     -3.305549     -0.316970
  H      -1.054405     -2.458491      2.228839
  H       1.237862     -1.489534      3.197420
  O       1.768048      2.300940      0.044411
  O       0.602665      1.046464      1.468158
  C       1.173603      2.122538      1.135938
  C       1.162461      3.251579      2.121394
  H       1.031443      4.204442      1.613381
  H       2.128389      3.287375      2.628201
  H       0.388004      3.117004      2.870792
  H       3.173270     -1.846455      1.366681
  H       2.017873     -2.939248     -0.835127
39
Coordinates from ORCA-job reaction4-IEIP_ts_guess_scan_12-12_orca E -1288.404995118671
  Ir      0.610491     -0.746119      0.413735
  C       0.144974     -2.858161      0.351989
  C      -0.116176     -2.411040      1.696771
  C       2.125716     -2.067059      1.239157
  C       1.522892     -2.672721      0.087949
  C       1.102493     -1.940744      2.225564
  N      -1.077899      0.102643     -0.508139
  C      -2.352512      0.277253      0.203908
  C      -3.146407      1.495321     -0.246518
  H      -3.980726      1.644030      0.437053
  H      -3.576325      1.378100     -1.242174
  H      -2.543204      2.403374     -0.229524
  C      -3.176069     -1.000253      0.084917
  H      -2.076131      0.422451      1.249513
  H      -4.083258     -0.915945      0.681973
  H      -3.472381     -1.180651     -0.949194
  H      -2.630160     -1.873688      0.437798
  C      -0.926864      0.488016     -1.722902
  C       0.388713      0.324963     -2.259884
  H      -1.736285      0.935096     -2.290736
  C       1.406934      0.004944     -1.361593
  C       2.627891     -0.198441     -2.076402
  S       0.902151      0.404784     -3.876345
  C       2.498541     -0.008304     -3.420066
  H       1.651221      1.188491     -0.671900
  H       3.575461     -0.420942     -1.607192
  H       3.270598     -0.073492     -4.171709
  H      -0.569222     -3.307159     -0.322636
  H      -1.057603     -2.462056      2.221772
  H       1.228744     -1.489937      3.199771
  O       1.767489      2.302048      0.043344
  O       0.603752      1.047094      1.467954
  C       1.174270      2.123132      1.135501
  C       1.164463      3.251886      2.121349
  H       1.033790      4.205102      1.613928
  H       2.130695      3.286869      2.627644
  H       0.390353      3.117409      2.871135
  H       3.172008     -1.841860      1.375729
  H       2.026955     -2.935246     -0.830801
39
Coordinates from ORCA-job reaction4-IEIP_ts_guess_scan_12-12_orca E -1288.404996182811
  Ir      0.610909     -0.745349      0.413761
  C       0.150184     -2.858007      0.348262
  C      -0.117548     -2.413263      1.692666
  C       2.125307     -2.063431      1.244964
  C       1.529011     -2.669591      0.090882
  C       1.097385     -1.940891      2.227412
  N      -1.078141      0.102384     -0.507663
  C      -2.352622      0.276546      0.204829
  C      -3.145141      1.496612     -0.242535
  H      -3.979375      1.644526      0.441309
  H      -3.575123      1.382490     -1.238527
  H      -2.540812      2.403859     -0.223219
  C      -3.177359     -0.999933      0.082730
  H      -2.076196      0.418835      1.250807
  H      -4.083564     -0.917055      0.681469
  H      -3.475364     -1.176623     -0.951540
  H      -2.631380     -1.874938      0.431651
  C      -0.928235      0.486720     -1.722743
  C       0.386814      0.323665     -2.260725
  H      -1.738435      0.932889     -2.290229
  C       1.405630      0.004643     -1.362791
  C       2.626110     -0.199868     -2.078066
  S       0.899135      0.401324     -3.877621
  C       2.495855     -0.011647     -3.421866
  H       1.649498      1.188997     -0.673232
  H       3.573954     -0.421768     -1.609119
  H       3.267316     -0.077973     -4.174022
  H      -0.559917     -3.308492     -0.329672
  H      -1.061345     -2.466278      2.213207
  H       1.218163     -1.490726      3.202602
  O       1.767056      2.302195      0.042360
  O       0.604609      1.047791      1.468114
  C       1.174966      2.123547      1.135156
  C       1.166795      3.252578      2.120773
  H       1.037154      4.205903      1.613332
  H       2.133158      3.286450      2.626899
  H       0.392721      3.119085      2.870794
  H       3.170547     -1.836331      1.386373
  H       2.037649     -2.929683     -0.826041
39
Coordinates from ORCA-job reaction4-IEIP_ts_guess_scan_12-12_orca E -1288.404997476528
  Ir      0.611153     -0.744860      0.413987
  C       0.155182     -2.857835      0.344593
  C      -0.118971     -2.415519      1.688652
  C       2.124824     -2.060037      1.250744
  C       1.534928     -2.666495      0.093772
  C       1.092349     -1.941214      2.229318
  N      -1.078449      0.101639     -0.507175
  C      -2.352699      0.275562      0.205948
  C      -3.143491      1.497936     -0.238141
  H      -3.977405      1.645274      0.446230
  H      -3.573851      1.387188     -1.234352
  H      -2.537739      2.404170     -0.216562
  C      -3.178970     -0.999613      0.080561
  H      -2.076148      0.414799      1.252277
  H      -4.084155     -0.917969      0.681012
  H      -3.478767     -1.172371     -0.953857
  H      -2.633227     -1.876418      0.425387
  C      -0.929717      0.484870     -1.722666
  C       0.384870      0.321715     -2.261393
  H      -1.740659      0.930085     -2.289864
  C       1.404309      0.003501     -1.363951
  C       2.624563     -0.200897     -2.079428
  S       0.896622      0.398775     -3.878603
  C       2.493589     -0.013585     -3.423315
  H       1.647598      1.188005     -0.674023
  H       3.572641     -0.422349     -1.610747
  H       3.264643     -0.080096     -4.175875
  H      -0.550915     -3.309539     -0.336691
  H      -1.065144     -2.470293      2.204693
  H       1.207827     -1.491783      3.205477
  O       1.766887      2.301320      0.041100
  O       0.605204      1.048410      1.468341
  C       1.175660      2.123730      1.134484
  C       1.169017      3.253538      2.119259
  H       1.040846      4.206671      1.611126
  H       2.135302      3.286265      2.625612
  H       0.394654      3.121721      2.869301
  H       3.169013     -1.831122      1.396927
  H       2.047998     -2.923989     -0.821417
39
Coordinates from ORCA-job reaction4-IEIP_ts_guess_scan_12-12_orca E -1288.404999009407
  Ir      0.611214     -0.744875      0.414296
  C       0.158318     -2.857908      0.342328
  C      -0.120065     -2.417042      1.686112
  C       2.124375     -2.058112      1.254788
  C       1.538712     -2.664747      0.095909
  C       1.088893     -1.941549      2.230724
  N      -1.078736      0.100688     -0.506691
  C      -2.352752      0.274600      0.206962
  C      -3.141999      1.498884     -0.234640
  H      -3.975553      1.645995      0.450236
  H      -3.572770      1.390793     -1.230965
  H      -2.534989      2.404226     -0.211407
  C      -3.180402     -0.999409      0.079018
  H      -2.076054      0.411538      1.253528
  H      -4.084957     -0.918443      0.680522
  H      -3.481354     -1.169234     -0.955548
  H      -2.635172     -1.877681      0.420974
  C      -0.930789      0.483158     -1.722570
  C       0.383585      0.319887     -2.261630
  H      -1.742164      0.927725     -2.289650
  C       1.403493      0.001964     -1.364672
  C       2.623795     -0.201117     -2.080186
  S       0.895324      0.398147     -3.878953
  C       2.492441     -0.013285     -3.424040
  H       1.646349      1.186156     -0.674347
  H       3.572048     -0.422357     -1.611768
  H       3.263392     -0.078933     -4.176787
  H      -0.545123     -3.310330     -0.341212
  H      -1.067857     -2.472752      2.199089
  H       1.200933     -1.492679      3.207531
  O       1.767081      2.300045      0.039639
  O       0.605549      1.048781      1.468274
  C       1.176230      2.123726      1.133401
  C       1.170372      3.254370      2.117199
  H       1.043500      4.207160      1.608122
  H       2.136404      3.286332      2.624081
  H       0.395517      3.124109      2.867013
  H       3.167871     -1.828089      1.404165
  H       2.054712     -2.920552     -0.818107
39
Coordinates from ORCA-job reaction4-IEIP_ts_guess_scan_12-12_orca E -1288.405000243225
  Ir      0.611231     -0.745159      0.414491
  C       0.159316     -2.858203      0.341704
  C      -0.120667     -2.417566      1.685289
  C       2.124079     -2.057743      1.256550
  C       1.539993     -2.664543      0.097014
  C       1.087423     -1.941705      2.231377
  N      -1.078877      0.100052     -0.506298
  C      -2.352759      0.274012      0.207584
  C      -3.141137      1.499309     -0.232799
  H      -3.974508      1.646399      0.452317
  H      -3.572075      1.392590     -1.229196
  H      -2.533431      2.404159     -0.208705
  C      -3.181163     -0.999349      0.078315
  H      -2.075963      0.409819      1.254259
  H      -4.085587     -0.918575      0.680051
  H      -3.482403     -1.167822     -0.956387
  H      -2.636397     -1.878372      0.419122
  C      -0.931205      0.482222     -1.722412
  C       0.383155      0.318920     -2.261542
  H      -1.742689      0.926532     -2.289521
  C       1.403301      0.000885     -1.364904
  C       2.623721     -0.200802     -2.080488
  S       0.895002      0.398804     -3.878858
  C       2.492219     -0.011897     -3.424237
  H       1.646102      1.184771     -0.674469
  H       3.572096     -0.421989     -1.612301
  H       3.263234     -0.076509     -4.177011
  H      -0.543110     -3.310926     -0.342673
  H      -1.069100     -2.473443      2.197075
  H       1.198230     -1.493087      3.208438
  O       1.767483      2.299260      0.038471
  O       0.605754      1.048918      1.467876
  C       1.176590      2.123703      1.132336
  C       1.170695      3.254778      2.115590
  H       1.044571      4.207355      1.605926
  H       2.136433      3.286443      2.623053
  H       0.395352      3.125278      2.865026
  H       3.167331     -1.827414      1.407154
  H       2.057133     -2.919916     -0.816479
