39
Coordinates from ORCA-job reaction4-IEIP_ts_guess_scan_11-1_orca E -1288.398172746316
  Ir      0.634332     -0.704595      0.396027
  C       0.109183     -2.814527      0.327851
  C       0.076421     -2.357387      1.689726
  C       2.227814     -2.089587      0.886858
  C       1.417323     -2.645829     -0.169855
  C       1.399663     -1.940348      2.023211
  N      -1.049521      0.150700     -0.533234
  C      -2.306948      0.426002      0.177814
  C      -3.098682      1.584131     -0.410023
  H      -3.915824      1.831515      0.266173
  H      -3.553999      1.341565     -1.371226
  H      -2.487582      2.479724     -0.524432
  C      -3.139366     -0.849626      0.244824
  H      -2.000607      0.695388      1.189464
  H      -4.035358     -0.672169      0.837882
  H      -3.454852     -1.168857     -0.749282
  H      -2.594140     -1.667741      0.713003
  C      -0.895414      0.409171     -1.772090
  C       0.436118      0.192187     -2.257750
  H      -1.691350      0.802207     -2.396778
  C       1.483761      0.208111     -1.329155
  C       2.709700     -0.125544     -1.990146
  S       0.922624     -0.220091     -3.825141
  C       2.555514     -0.380815     -3.315134
  H       1.505612      1.194345     -0.640635
  H       3.673709     -0.120049     -1.502379
  H       3.317607     -0.629725     -4.037948
  H      -0.728520     -3.210291     -0.228203
  H      -0.767712     -2.391205      2.361733
  H       1.702089     -1.512604      2.968540
  O       1.405840      2.447978      0.150438
  O       0.551950      0.967487      1.577868
  C       0.960023      2.143005      1.258939
  C       0.894196      3.162418      2.361852
  H       0.865750      4.170096      1.956428
  H       1.791461      3.075353      2.977517
  H       0.037707      2.996060      3.011510
  H       3.284158     -1.873669      0.838743
  H       1.756689     -2.903595     -1.162249
39
Coordinates from ORCA-job reaction4-IEIP_ts_guess_scan_11-1_orca E -1288.398141613917
  Ir      0.630884     -0.696993      0.391821
  C       0.111791     -2.811155      0.329829
  C       0.077836     -2.353011      1.691218
  C       2.227548     -2.078541      0.888162
  C       1.419420     -2.639450     -0.167770
  C       1.398371     -1.929891      2.023586
  N      -1.059415      0.148701     -0.536734
  C      -2.316769      0.423409      0.174911
  C      -3.112601      1.576413     -0.417547
  H      -3.930022      1.824242      0.258127
  H      -3.567777      1.328045     -1.377331
  H      -2.504492      2.473468     -0.536507
  C      -3.145376     -0.854309      0.248466
  H      -2.010376      0.698344      1.185064
  H      -4.041337     -0.676982      0.841620
  H      -3.460934     -1.178878     -0.743896
  H      -2.597284     -1.668753      0.719648
  C      -0.905477      0.400446     -1.781842
  C       0.429452      0.186686     -2.270142
  H      -1.703459      0.787054     -2.407842
  C       1.475685      0.208053     -1.339658
  C       2.704440     -0.120979     -1.998483
  S       0.919633     -0.229085     -3.835511
  C       2.553157     -0.379446     -3.323216
  H       1.496315      1.212778     -0.668210
  H       3.668156     -0.107511     -1.510175
  H       3.317623     -0.625535     -4.044408
  H      -0.724381     -3.211117     -0.225566
  H      -0.765895     -2.389310      2.363536
  H       1.699069     -1.499897      2.968437
  O       1.519910      2.418587      0.199439
  O       0.537621      0.976708      1.577540
  C       0.999690      2.136972      1.281752
  C       0.906372      3.163159      2.375986
  H       0.935387      4.169378      1.966910
  H       1.763831      3.048436      3.041780
  H       0.009235      3.028821      2.976215
  H       3.283483     -1.860639      0.840798
  H       1.760057     -2.899029     -1.159266
39
Coordinates from ORCA-job reaction4-IEIP_ts_guess_scan_11-1_orca E -1288.398000279955
  Ir      0.639632     -0.703812      0.394855
  C       0.107407     -2.819369      0.329595
  C       0.075822     -2.369032      1.693498
  C       2.225764     -2.100577      0.892473
  C       1.416315     -2.653120     -0.166518
  C       1.395625     -1.951758      2.027044
  N      -1.050250      0.153797     -0.524103
  C      -2.307413      0.426770      0.188511
  C      -3.097134      1.588736     -0.394823
  H      -3.915638      1.832955      0.280822
  H      -3.550226      1.351548     -1.358424
  H      -2.485498      2.484746     -0.503229
  C      -3.141801     -0.847911      0.247241
  H      -2.002235      0.690402      1.202055
  H      -4.038397     -0.672948      0.840166
  H      -3.456586     -1.160947     -0.749082
  H      -2.598339     -1.669546      0.711153
  C      -0.888738      0.418287     -1.774855
  C       0.450544      0.202953     -2.271496
  H      -1.684748      0.814342     -2.397278
  C       1.494731      0.191389     -1.336687
  C       2.721141     -0.145388     -1.997532
  S       0.940157     -0.194806     -3.841765
  C       2.570265     -0.378136     -3.326947
  H       1.545923      1.216090     -0.675544
  H       3.684070     -0.150820     -1.507310
  H       3.333771     -0.622615     -4.049562
  H      -0.730242     -3.213581     -0.227739
  H      -0.767837     -2.405126      2.365778
  H       1.697565     -1.527713      2.974169
  O       1.341961      2.443661      0.136130
  O       0.549954      0.968066      1.592790
  C       0.933792      2.145815      1.262158
  C       0.881681      3.174672      2.355745
  H       0.826121      4.177958      1.942110
  H       1.796459      3.107340      2.947513
  H       0.045576      3.000460      3.029181
  H       3.283428     -1.890818      0.848729
  H       1.756747     -2.912774     -1.158079
39
Coordinates from ORCA-job reaction4-IEIP_ts_guess_scan_11-1_orca E -1288.398488552126
  Ir      0.632990     -0.703768      0.396507
  C       0.103120     -2.816691      0.338221
  C       0.070940     -2.359691      1.699731
  C       2.221598     -2.093554      0.896958
  C       1.411936     -2.651179     -0.159148
  C       1.391806     -1.940942      2.031679
  N      -1.052964      0.148838     -0.529600
  C      -2.311352      0.419590      0.180117
  C      -3.103893      1.577826     -0.406599
  H      -3.923745      1.821367      0.267723
  H      -3.555418      1.336953     -1.370016
  H      -2.494540      2.475143     -0.516586
  C      -3.141589     -0.857769      0.241236
  H      -2.007421      0.686371      1.193151
  H      -4.039091     -0.684145      0.833184
  H      -3.454605     -1.174160     -0.754546
  H      -2.595688     -1.676482      0.707552
  C      -0.896226      0.412235     -1.773355
  C       0.438713      0.201640     -2.266557
  H      -1.693775      0.806495     -2.394960
  C       1.484415      0.196331     -1.334305
  C       2.712122     -0.129622     -1.997531
  S       0.928537     -0.186182     -3.838852
  C       2.560649     -0.359326     -3.327488
  H       1.519845      1.201765     -0.656210
  H       3.675274     -0.132724     -1.507967
  H       3.324345     -0.596429     -4.052539
  H      -0.734502     -3.213225     -0.217401
  H      -0.773082     -2.392359      2.371801
  H       1.693747     -1.511985      2.976592
  O       1.428974      2.445101      0.152002
  O       0.552093      0.973017      1.576340
  C       0.971225      2.144302      1.258433
  C       0.903554      3.167843      2.356341
  H       0.883902      4.174294      1.947342
  H       1.795673      3.077489      2.978877
  H       0.041072      3.008140      2.999555
  H       3.278811     -1.881711      0.851152
  H       1.751918     -2.913609     -1.150096
39
Coordinates from ORCA-job reaction4-IEIP_ts_guess_scan_11-1_orca E -1288.398534178153
  Ir      0.633255     -0.705196      0.397524
  C       0.103651     -2.818310      0.340884
  C       0.069556     -2.361150      1.702140
  C       2.221222     -2.094616      0.901897
  C       1.413182     -2.652975     -0.154865
  C       1.389598     -1.941681      2.035330
  N      -1.052471      0.147015     -0.530174
  C      -2.310853      0.418243      0.179752
  C      -3.102947      1.577791     -0.405143
  H      -3.922229      1.821146      0.269917
  H      -3.555279      1.338372     -1.368519
  H      -2.493027      2.474810     -0.514454
  C      -3.142586     -0.858243      0.240079
  H      -2.006573      0.683839      1.193072
  H      -4.039891     -0.684062      0.832188
  H      -3.455986     -1.173510     -0.755937
  H      -2.597645     -1.677892      0.705745
  C      -0.896065      0.411335     -1.773658
  C       0.437998      0.201557     -2.268203
  H      -1.694055      0.806162     -2.394272
  C       1.483389      0.191389     -1.335746
  C       2.711289     -0.130047     -2.000642
  S       0.928323     -0.174925     -3.842958
  C       2.560129     -0.351502     -3.332079
  H       1.521023      1.200892     -0.661770
  H       3.674288     -0.136409     -1.510861
  H       3.324026     -0.584029     -4.058376
  H      -0.733044     -3.215344     -0.215754
  H      -0.775403     -2.393510      2.373031
  H       1.690181     -1.512095      2.980400
  O       1.434468      2.440349      0.152847
  O       0.551118      0.973333      1.576331
  C       0.972484      2.143015      1.258460
  C       0.903974      3.169142      2.354142
  H       0.886908      4.174818      1.943124
  H       1.794546      3.078608      2.978894
  H       0.039777      3.012133      2.995750
  H       3.278567     -1.883085      0.857796
  H       1.754473     -2.916178     -1.145148
39
Coordinates from ORCA-job reaction4-IEIP_ts_guess_scan_11-1_orca E -1288.398614367957
  Ir      0.632908     -0.711511      0.402244
  C       0.100789     -2.823750      0.351688
  C       0.061302     -2.365165      1.711965
  C       2.216706     -2.101313      0.919676
  C       1.412933     -2.661276     -0.138945
  C       1.379461     -1.945288      2.049001
  N      -1.050222      0.141543     -0.530163
  C      -2.309212      0.411361      0.179938
  C      -3.099783      1.575716     -0.397791
  H      -3.918398      1.816188      0.279047
  H      -3.553013      1.342783     -1.362307
  H      -2.488615      2.472518     -0.502021
  C      -3.144063     -0.863520      0.233063
  H      -2.005373      0.670904      1.195050
  H      -4.041555     -0.690346      0.825180
  H      -3.457191     -1.172740     -0.764943
  H      -2.601530     -1.686896      0.694842
  C      -0.894518      0.411795     -1.772239
  C       0.436909      0.205231     -2.271146
  H      -1.693888      0.809668     -2.389135
  C       1.480957      0.174105     -1.337674
  C       2.709842     -0.130804     -2.008539
  S       0.929312     -0.131276     -3.853837
  C       2.560613     -0.317307     -3.345674
  H       1.524853      1.191758     -0.669600
  H       3.672092     -0.150720     -1.517738
  H       3.325603     -0.530615     -4.076680
  H      -0.733612     -3.221248     -0.208052
  H      -0.786774     -2.394643      2.378978
  H       1.676382     -1.513405      2.994207
  O       1.442584      2.432029      0.144222
  O       0.554422      0.974433      1.573169
  C       0.978940      2.140292      1.251228
  C       0.909722      3.174268      2.339895
  H       0.892249      4.177227      1.922334
  H       1.800340      3.088229      2.965218
  H       0.045557      3.021031      2.982513
  H       3.274736     -1.892289      0.880829
  H       1.757904     -2.927777     -1.127061
39
Coordinates from ORCA-job reaction4-IEIP_ts_guess_scan_11-1_orca E -1288.398639986837
  Ir      0.631664     -0.714333      0.405071
  C       0.098611     -2.825617      0.357433
  C       0.054425     -2.365500      1.717067
  C       2.212961     -2.103450      0.931874
  C       1.412863     -2.664765     -0.128611
  C       1.371248     -1.945297      2.057886
  N      -1.049602      0.138649     -0.529634
  C      -2.309357      0.405197      0.180451
  C      -3.099688      1.571869     -0.393012
  H      -3.918706      1.809252      0.284412
  H      -3.552318      1.342956     -1.358784
  H      -2.488651      2.469223     -0.493179
  C      -3.144101     -0.870020      0.226972
  H      -2.006881      0.660606      1.196992
  H      -4.042397     -0.699554      0.818644
  H      -3.455864     -1.174853     -0.772818
  H      -2.602061     -1.695446      0.685682
  C      -0.894349      0.414278     -1.770642
  C       0.435955      0.210635     -2.272051
  H      -1.694599      0.814505     -2.384909
  C       1.479360      0.164588     -1.338410
  C       2.708447     -0.131949     -2.012692
  S       0.930479     -0.095710     -3.860001
  C       2.559808     -0.298423     -3.352604
  H       1.527390      1.184174     -0.669777
  H       3.670024     -0.163722     -1.521205
  H       3.324833     -0.503420     -4.085945
  H      -0.733728     -3.223680     -0.204978
  H      -0.796229     -2.393123      2.380843
  H       1.664971     -1.511597      3.003271
  O       1.448745      2.429188      0.137132
  O       0.556375      0.976652      1.569604
  C       0.981079      2.141042      1.243855
  C       0.918129      3.177519      2.330577
  H       0.902263      4.179618      1.910937
  H       1.810410      3.090307      2.953378
  H       0.055461      3.027958      2.975994
  H       3.271331     -1.895489      0.897027
  H       1.761065     -2.933077     -1.115109
39
Coordinates from ORCA-job reaction4-IEIP_ts_guess_scan_11-1_orca E -1288.398653180773
  Ir      0.631508     -0.716768      0.406938
  C       0.096747     -2.826886      0.359895
  C       0.048779     -2.365653      1.719217
  C       2.210208     -2.106336      0.940495
  C       1.412887     -2.667855     -0.121925
  C       1.364909     -1.946384      2.063755
  N      -1.048404      0.137726     -0.528167
  C      -2.308504      0.401463      0.182450
  C      -3.098637      1.570099     -0.387359
  H      -3.917783      1.805079      0.290752
  H      -3.551023      1.344524     -1.354039
  H      -2.487614      2.467795     -0.484396
  C      -3.143082     -0.874046      0.223373
  H      -2.006900      0.653361      1.200085
  H      -4.041933     -0.706038      0.814920
  H      -3.453937     -1.175046     -0.777860
  H      -2.601334     -1.701269      0.679169
  C      -0.893721      0.417742     -1.768493
  C       0.435551      0.214550     -2.272084
  H      -1.694578      0.819837     -2.380717
  C       1.479049      0.156927     -1.339243
  C       2.707637     -0.134939     -2.016260
  S       0.929768     -0.076273     -3.863035
  C       2.559117     -0.283681     -3.358362
  H       1.530920      1.176201     -0.668088
  H       3.669018     -0.174835     -1.524995
  H       3.324066     -0.480405     -4.094050
  H      -0.733999     -3.224821     -0.204948
  H      -0.804032     -2.391706      2.380286
  H       1.656149     -1.511815      3.009514
  O       1.458387      2.425247      0.133142
  O       0.559918      0.977349      1.567379
  C       0.989215      2.139670      1.240146
  C       0.919814      3.180960      2.321713
  H       0.902838      4.181030      1.897270
  H       1.810331      3.098850      2.947660
  H       0.055379      3.032217      2.964894
  H       3.268909     -1.899555      0.908934
  H       1.763748     -2.937127     -1.107226
39
Coordinates from ORCA-job reaction4-IEIP_ts_guess_scan_11-1_orca E -1288.398660331370
  Ir      0.631698     -0.716318      0.406834
  C       0.097926     -2.826451      0.358019
  C       0.047279     -2.364891      1.717352
  C       2.210217     -2.105323      0.942912
  C       1.414979     -2.667030     -0.121031
  C       1.362809     -1.945650      2.064618
  N      -1.048432      0.138378     -0.527685
  C      -2.308597      0.401091      0.183259
  C      -3.099184      1.569791     -0.385877
  H      -3.918320      1.804169      0.292463
  H      -3.551590      1.344577     -1.352629
  H      -2.488456      2.467719     -0.482568
  C      -3.142646     -0.874786      0.222950
  H      -2.007196      0.652464      1.201066
  H      -4.041689     -0.707722      0.814494
  H      -3.453217     -1.175054     -0.778586
  H      -2.600687     -1.702251      0.678021
  C      -0.893958      0.419286     -1.767963
  C       0.435185      0.215587     -2.271902
  H      -1.694854      0.821726     -2.379845
  C       1.479163      0.156233     -1.339956
  C       2.707115     -0.136681     -2.017269
  S       0.928424     -0.075919     -3.863218
  C       2.557861     -0.284161     -3.359508
  H       1.532268      1.173733     -0.666329
  H       3.668654     -0.177664     -1.526411
  H       3.322378     -0.480940     -4.095633
  H      -0.731528     -3.224857     -0.208369
  H      -0.806685     -2.391393      2.376937
  H       1.652176     -1.511064      3.010946
  O       1.461755      2.423714      0.133624
  O       0.559564      0.977620      1.567278
  C       0.989655      2.139823      1.239727
  C       0.920366      3.181403      2.320887
  H       0.904154      4.181259      1.895885
  H       1.810617      3.099155      2.947181
  H       0.055547      3.033441      2.963699
  H       3.268876     -1.898052      0.913170
  H       1.767743     -2.935773     -1.105802
39
Coordinates from ORCA-job reaction4-IEIP_ts_guess_scan_11-1_orca E -1288.398678043939
  Ir      0.633042     -0.714893      0.406491
  C       0.104021     -2.825568      0.350149
  C       0.041655     -2.363466      1.709547
  C       2.210826     -2.101356      0.953459
  C       1.424876     -2.663901     -0.117025
  C       1.354109     -1.943723      2.068467
  N      -1.047968      0.140360     -0.525665
  C      -2.308015      0.399877      0.186831
  C      -3.099712      1.569832     -0.378523
  H      -3.918445      1.801923      0.301093
  H      -3.552643      1.347046     -1.345582
  H      -2.489538      2.468328     -0.473329
  C      -3.141192     -0.876668      0.221357
  H      -2.006863      0.648330      1.205384
  H      -4.040575     -0.712801      0.813337
  H      -3.451348     -1.173136     -0.781431
  H      -2.598999     -1.705876      0.672879
  C      -0.894725      0.424545     -1.765668
  C       0.433489      0.219751     -2.271679
  H      -1.695961      0.829043     -2.375581
  C       1.479278      0.152879     -1.343273
  C       2.704510     -0.143395     -2.022647
  S       0.923176     -0.067736     -3.865551
  C       2.551461     -0.288536     -3.365019
  H       1.538127      1.164648     -0.661117
  H       3.666730     -0.190069     -1.533685
  H       3.313647     -0.488222     -4.102780
  H      -0.719730     -3.226108     -0.222962
  H      -0.817210     -2.392491      2.362698
  H       1.635151     -1.509315      3.017389
  O       1.476969      2.416599      0.136520
  O       0.558825      0.978239      1.567333
  C       0.994984      2.138887      1.239630
  C       0.919377      3.183795      2.316737
  H       0.904172      4.181942      1.887591
  H       1.807023      3.105104      2.947096
  H       0.051677      3.037397      2.955930
  H       3.269251     -1.891907      0.931832
  H       1.785917     -2.930170     -1.099492
39
Coordinates from ORCA-job reaction4-IEIP_ts_guess_scan_11-1_orca E -1288.398688254335
  Ir      0.633298     -0.714974      0.407369
  C       0.107341     -2.826425      0.348051
  C       0.036873     -2.364157      1.707206
  C       2.210046     -2.099543      0.963317
  C       1.430742     -2.663338     -0.111200
  C       1.346639     -1.943178      2.073558
  N      -1.047839      0.140045     -0.524763
  C      -2.308036      0.397946      0.188052
  C      -3.099753      1.569404     -0.374313
  H      -3.918473      1.799735      0.305892
  H      -3.552663      1.349036     -1.341936
  H      -2.489619      2.468168     -0.466884
  C      -3.141488     -0.878533      0.218671
  H      -2.007255      0.643821      1.207337
  H      -4.041003     -0.716421      0.810940
  H      -3.451486     -1.171816     -0.785110
  H      -2.599615     -1.709389      0.667562
  C      -0.895377      0.425730     -1.764544
  C       0.431724      0.221088     -2.272413
  H      -1.697269      0.830989     -2.373130
  C       1.477994      0.148316     -1.345354
  C       2.702231     -0.146032     -2.027050
  S       0.919518     -0.060694     -3.868165
  C       2.548056     -0.282971     -3.370287
  H       1.540689      1.159528     -0.660961
  H       3.664838     -0.195928     -1.539204
  H       3.309697     -0.478872     -4.109623
  H      -0.712469     -3.228650     -0.229497
  H      -0.825359     -2.394730      2.355836
  H       1.621759     -1.508426      3.024071
  O       1.484965      2.412109      0.136086
  O       0.558945      0.979267      1.567051
  C       0.998179      2.138363      1.238077
  C       0.923089      3.185586      2.312969
  H       0.908091      4.182786      1.881577
  H       1.811013      3.108214      2.943093
  H       0.055525      3.040835      2.952679
  H       3.268347     -1.888997      0.947598
  H       1.797475     -2.928702     -1.091818
39
Coordinates from ORCA-job reaction4-IEIP_ts_guess_scan_11-1_orca E -1288.398700062911
  Ir      0.633450     -0.714680      0.408239
  C       0.113014     -2.827822      0.344409
  C       0.030830     -2.366131      1.703295
  C       2.209166     -2.095862      0.976703
  C       1.439803     -2.661766     -0.103522
  C       1.336127     -1.942349      2.080151
  N      -1.048301      0.139259     -0.523591
  C      -2.308610      0.395416      0.189559
  C      -3.099826      1.569298     -0.368571
  H      -3.918639      1.797285      0.312278
  H      -3.552538      1.352642     -1.337123
  H      -2.489433      2.468242     -0.457654
  C      -3.142884     -0.880689      0.214913
  H      -2.008210      0.637487      1.209876
  H      -4.042178     -0.720867      0.808139
  H      -3.453307     -1.169153     -0.790146
  H      -2.601384     -1.714066      0.659610
  C      -0.896908      0.426025     -1.763244
  C       0.428840      0.222108     -2.273618
  H      -1.699782      0.831883     -2.370222
  C       1.475816      0.143456     -1.348132
  C       2.698905     -0.148819     -2.032768
  S       0.914449     -0.051966     -3.871618
  C       2.543060     -0.277923     -3.376673
  H       1.543725      1.154526     -0.661805
  H       3.662088     -0.202013     -1.546398
  H       3.303900     -0.470544     -4.117692
  H      -0.700992     -3.232713     -0.239429
  H      -0.836087     -2.399753      2.345492
  H       1.602399     -1.507219      3.033034
  O       1.496133      2.407058      0.135845
  O       0.559478      0.980918      1.566453
  C       1.004177      2.137498      1.236613
  C       0.928882      3.187842      2.308565
  H       0.913036      4.183828      1.874347
  H       1.817410      3.113110      2.938158
  H       0.061822      3.044376      2.949199
  H       3.267141     -1.883319      0.969571
  H       1.814799     -2.925412     -1.081502
39
Coordinates from ORCA-job reaction4-IEIP_ts_guess_scan_11-1_orca E -1288.398711583309
  Ir      0.633318     -0.714113      0.408848
  C       0.121607     -2.829734      0.338148
  C       0.023491     -2.369746      1.696826
  C       2.208220     -2.089737      0.993466
  C       1.452692     -2.658667     -0.094450
  C       1.322247     -1.941226      2.087827
  N      -1.049583      0.138048     -0.522161
  C      -2.309810      0.392512      0.191548
  C      -3.099686      1.569860     -0.361223
  H      -3.918660      1.795183      0.320294
  H      -3.552048      1.358325     -1.331064
  H      -2.488456      2.468680     -0.445613
  C      -3.145502     -0.882847      0.210396
  H      -2.009664      0.629549      1.213132
  H      -4.043905     -0.725922      0.805735
  H      -3.457428     -1.164670     -0.796097
  H      -2.604176     -1.719663      0.648879
  C      -0.899709      0.425170     -1.761819
  C       0.424623      0.222170     -2.274977
  H      -1.703862      0.831057     -2.367194
  C       1.472678      0.139275     -1.351272
  C       2.694582     -0.151311     -2.038981
  S       0.907688     -0.045181     -3.874984
  C       2.536608     -0.274662     -3.383189
  H       1.546605      1.150159     -0.663468
  H       3.658508     -0.206767     -1.554317
  H       3.296450     -0.464922     -4.125836
  H      -0.684379     -3.238265     -0.254179
  H      -0.849671     -2.408132      2.330234
  H       1.576219     -1.505728      3.043921
  O       1.508456      2.402512      0.134971
  O       0.560435      0.983139      1.564957
  C       1.011795      2.136736      1.234613
  C       0.937120      3.190180      2.303780
  H       0.918302      4.184934      1.866795
  H       1.827707      3.119310      2.930920
  H       0.072099      3.046983      2.947170
  H       3.265534     -1.873989      0.998000
  H       1.838927     -2.919309     -1.068895
39
Coordinates from ORCA-job reaction4-IEIP_ts_guess_scan_11-1_orca E -1288.398720142182
  Ir      0.633017     -0.713741      0.408901
  C       0.130896     -2.831567      0.330403
  C       0.016850     -2.374064      1.689048
  C       2.207499     -2.083036      1.008853
  C       1.466037     -2.654850     -0.086785
  C       1.308792     -1.940358      2.094209
  N      -1.051264      0.136843     -0.520791
  C      -2.311141      0.390126      0.193842
  C      -3.099086      1.571188     -0.353752
  H      -3.918106      1.794396      0.328405
  H      -3.551216      1.364969     -1.324837
  H      -2.486480      2.469472     -0.433583
  C      -3.148523     -0.884251      0.206612
  H      -2.010934      0.622179      1.216547
  H      -4.045443     -0.730110      0.804899
  H      -3.462894     -1.159241     -0.801018
  H      -2.607067     -1.724574      0.638243
  C      -0.903023      0.423671     -1.760637
  C       0.420396      0.221119     -2.275909
  H      -1.708305      0.828998     -2.364952
  C       1.469683      0.137129     -1.353718
  C       2.690663     -0.152940     -2.043586
  S       0.901207     -0.043713     -3.876925
  C       2.530739     -0.274675     -3.387667
  H       1.548414      1.147729     -0.665485
  H       3.655259     -0.208852     -1.560288
  H       3.289622     -0.464245     -4.131469
  H      -0.666930     -3.243549     -0.270473
  H      -0.862545     -2.417366      2.313458
  H       1.550310     -1.504682      3.053461
  O       1.517742      2.400121      0.133214
  O       0.561635      0.985248      1.562564
  C       1.018116      2.136654      1.232131
  C       0.944854      3.191990      2.299690
  H       0.921186      4.185850      1.860843
  H       1.838722      3.125380      2.922634
  H       0.083229      3.047596      2.947294
  H       3.263957     -1.863811      1.025086
  H       1.863503     -2.911843     -1.057721
39
Coordinates from ORCA-job reaction4-IEIP_ts_guess_scan_11-1_orca E -1288.398727043065
  Ir      0.632824     -0.713882      0.408499
  C       0.141934     -2.833574      0.320235
  C       0.010054     -2.379675      1.679003
  C       2.206940     -2.075602      1.024910
  C       1.481424     -2.650183     -0.079487
  C       1.294167     -1.940120      2.100165
  N      -1.053173      0.135480     -0.519172
  C      -2.312319      0.388021      0.197004
  C      -3.097384      1.573677     -0.344773
  H      -3.916219      1.795173      0.338183
  H      -3.549501      1.373783     -1.317172
  H      -2.482540      2.470836     -0.419638
  C      -3.152104     -0.884849      0.203252
  H      -2.011630      0.614433      1.220799
  H      -4.046740     -0.733614      0.805676
  H      -3.470209     -1.151872     -0.805350
  H      -2.610419     -1.729315      0.626502
  C      -0.906971      0.421578     -1.759368
  C       0.415890      0.218887     -2.276420
  H      -1.713316      0.825969     -2.362915
  C       1.466744      0.136346     -1.355730
  C       2.686807     -0.154215     -2.047338
  S       0.894274     -0.047107     -3.877719
  C       2.524818     -0.277599     -3.390947
  H       1.549487      1.146901     -0.668491
  H       3.652107     -0.209201     -1.565316
  H       3.282547     -0.467726     -4.135781
  H      -0.646562     -3.249086     -0.290388
  H      -0.876408     -2.428245      2.292956
  H       1.521653     -1.504569      3.062905
  O       1.524505      2.399546      0.130009
  O       0.563386      0.987299      1.558896
  C       1.023275      2.137323      1.228553
  C       0.951846      3.193654      2.295319
  H       0.920283      4.186720      1.855084
  H       1.850652      3.132860      2.911729
  H       0.095526      3.046109      2.949137
  H       3.262270     -1.852481      1.054403
  H       1.891450     -2.902490     -1.046475
39
Coordinates from ORCA-job reaction4-IEIP_ts_guess_scan_11-1_orca E -1288.398728821459
  Ir      0.633173     -0.714546      0.407891
  C       0.147977     -2.834580      0.313662
  C       0.006975     -2.383257      1.672688
  C       2.206891     -2.072440      1.032365
  C       1.489661     -2.647781     -0.076817
  C       1.286972     -1.941034      2.102337
  N      -1.053939      0.134752     -0.518098
  C      -2.312406      0.387409      0.199349
  C      -3.095320      1.575972     -0.339186
  H      -3.913808      1.797126      0.344318
  H      -3.547682      1.379840     -1.312228
  H      -2.478658      2.472083     -0.411505
  C      -3.154036     -0.884236      0.202305
  H      -2.011062      0.610719      1.223596
  H      -4.046970     -0.734241      0.807557
  H      -3.474929     -1.146750     -0.806590
  H      -2.612351     -1.731187      0.620593
  C      -0.908935      0.420232     -1.758592
  C       0.414055      0.216901     -2.276154
  H      -1.715604      0.824085     -2.362037
  C       1.465975      0.137156     -1.356156
  C       2.685551     -0.154556     -2.048296
  S       0.891105     -0.052894     -3.876982
  C       2.522465     -0.281446     -3.391392
  H       1.549371      1.148354     -0.671132
  H       3.651230     -0.208031     -1.566842
  H       3.279395     -0.472916     -4.136694
  H      -0.635582     -3.251557     -0.302255
  H      -0.883337     -2.433996      2.280879
  H       1.507241     -1.505978      3.066972
  O       1.524143      2.401262      0.126948
  O       0.564991      0.988013      1.556229
  C       1.023936      2.138461      1.225845
  C       0.953247      3.194453      2.292924
  H       0.914718      4.187184      1.852420
  H       1.855899      3.138292      2.904131
  H       0.101245      3.043249      2.951472
  H       3.261627     -1.847623      1.069006
  H       1.906146     -2.897305     -1.041791
39
Coordinates from ORCA-job reaction4-IEIP_ts_guess_scan_11-1_orca E -1288.398727801849
  Ir      0.634079     -0.715465      0.407589
  C       0.149932     -2.834974      0.310690
  C       0.005932     -2.384892      1.669950
  C       2.207100     -2.072730      1.034711
  C       1.492521     -2.647561     -0.076418
  C       1.284741     -1.942557      2.102805
  N      -1.053495      0.134555     -0.517338
  C      -2.311505      0.387487      0.200917
  C      -3.093187      1.577626     -0.335990
  H      -3.911324      1.798922      0.347895
  H      -3.545855      1.383384     -1.309264
  H      -2.475404      2.473050     -0.407264
  C      -3.154332     -0.883327      0.202364
  H      -2.009644      0.609319      1.225308
  H      -4.046452     -0.733574      0.808880
  H      -3.476588     -1.143784     -0.806623
  H      -2.613004     -1.731579      0.618478
  C      -0.909083      0.420021     -1.757898
  C       0.414048      0.216006     -2.275541
  H      -1.715671      0.824067     -2.361284
  C       1.466557      0.137711     -1.355898
  C       2.685763     -0.154848     -2.048330
  S       0.890315     -0.056256     -3.876079
  C       2.522082     -0.283750     -3.391149
  H       1.548906      1.149815     -0.672891
  H       3.651630     -0.207779     -1.567184
  H       3.278424     -0.476103     -4.136816
  H      -0.631915     -3.252064     -0.307312
  H      -0.885964     -2.435511      2.275843
  H       1.502735     -1.508105      3.068225
  O       1.520353      2.403196      0.124334
  O       0.566528      0.987776      1.554928
  C       1.022232      2.139412      1.223943
  C       0.950988      3.195019      2.291257
  H       0.907151      4.187486      1.850613
  H       1.856047      3.142581      2.899217
  H       0.101829      3.040666      2.952706
  H       3.261743     -1.847939      1.074090
  H       1.911156     -2.896112     -1.040723
39
Coordinates from ORCA-job reaction4-IEIP_ts_guess_scan_11-1_orca E -1288.398725957791
  Ir      0.635171     -0.716210      0.407558
  C       0.149715     -2.835038      0.309992
  C       0.005888     -2.385339      1.669414
  C       2.207386     -2.074545      1.034609
  C       1.492533     -2.648418     -0.076881
  C       1.284986     -1.944064      2.102626
  N      -1.052508      0.134639     -0.516780
  C      -2.310290      0.387749      0.201845
  C      -3.091353      1.578726     -0.334171
  H      -3.909249      1.800139      0.349960
  H      -3.544235      1.385421     -1.307530
  H      -2.472997      2.473800     -0.404977
  C      -3.153855     -0.882541      0.202469
  H      -2.008146      0.608809      1.226312
  H      -4.045811     -0.732653      0.809200
  H      -3.476428     -1.142139     -0.806635
  H      -2.613085     -1.731468      0.617933
  C      -0.908285      0.420362     -1.757297
  C       0.414852      0.215882     -2.274990
  H      -1.714678      0.824946     -2.360569
  C       1.467600      0.137878     -1.355511
  C       2.686530     -0.155236     -2.048169
  S       0.890631     -0.057468     -3.875483
  C       2.522517     -0.284817     -3.390880
  H       1.548279      1.150927     -0.673960
  H       3.652497     -0.208281     -1.567230
  H       3.278470     -0.477689     -4.136809
  H      -0.632133     -3.251692     -0.308305
  H      -0.886296     -2.434942      2.274977
  H       1.503249     -1.510193      3.068245
  O       1.515580      2.404803      0.122327
  O       0.567947      0.987203      1.554759
  C       1.019874      2.140071      1.222790
  C       0.947568      3.195567      2.290088
  H       0.899852      4.187792      1.849279
  H       1.854083      3.146059      2.896119
  H       0.100231      3.038778      2.953283
  H       3.262189     -1.850576      1.074331
  H       1.911092     -2.897053     -1.041198
