! Opt PBEh-3c
%geom Constraints
{ B 0 20 2.4714285714285715 C }
{ B 24 30 1.4 C }
    end
end
%output 
xyzfile=True 
end 
%scf 
maxiter 250 
end
%output
Print[P_Hirshfeld] = 1
end
% maxcore
4000
*xyz 1 1
Ir   0.58178121  -0.72772663   0.47466898 
C    0.02622726  -2.80745987   0.35432077 
C    0.10360047  -2.36203566   1.72433770 
C    2.19211101  -2.14156700   0.78031484 
C    1.29295798  -2.64468268  -0.23407730 
C    1.47063212  -2.00610602   1.97910572 
N   -1.04315569   0.16401159  -0.51540696 
C   -2.31747589   0.49098978   0.14417183 
C   -3.12745616   1.54918506  -0.58747784 
H   -3.95893255   1.85537217   0.04586681 
H   -3.56493059   1.18364588  -1.51793455 
H   -2.53820943   2.44141081  -0.80151674 
C   -3.12390237  -0.78355046   0.36102134 
H   -2.02969706   0.89061458   1.11807071 
H   -4.04081782  -0.54798925   0.89914791 
H   -3.40376933  -1.24200276  -0.58839446 
H   -2.58088706  -1.51700961   0.95539573 
C   -0.83897250   0.37095373  -1.75904626 
C    0.51138827   0.15848027  -2.23105410 
H   -1.62185926   0.72530656  -2.42361583 
C    1.61479663   0.50285538  -1.45928544 
C    2.81786676   0.10143047  -2.10730305 
S    0.93589691  -0.58661758  -3.70800325 
C    2.60394863  -0.48918032  -3.31353045 
H    1.53581796   1.38309354  -0.65639235 
H    3.80517753   0.29493211  -1.71369203 
H    3.34005348  -0.85519322  -4.01330097 
H   -0.86231516  -3.16593133  -0.14528385 
H   -0.68826089  -2.39689541   2.45813206 
H    1.85549850  -1.61788868   2.91116794 
O    1.32639821   2.44112392   0.25844052 
O    0.53572948   0.91111657   1.67623481 
C    0.91798175   2.10495205   1.36873084 
C    0.86437574   3.09087761   2.50135183 
H    0.82130268   4.10863332   2.12324291 
H    1.77275413   2.99517990   3.09945391 
H    0.02136336   2.90163867   3.16252687 
H    3.23787850  -1.91179467   0.63965102 
H    1.55447316  -2.86298279  -1.25929951 
*
