39
Generated by autodE on: 2023-08-14. E = -1288.400588 Ha
Ir    0.61050  -0.72846   0.46700
C     0.10989  -2.83117   0.34873
C    -0.02499  -2.36949   1.70631
C     2.17991  -2.09872   1.06892
C     1.45125  -2.65493  -0.04468
C     1.26903  -1.95469   2.13955
N    -1.04723   0.12312  -0.50452
C    -2.32274   0.36855   0.18869
C    -3.09959   1.55496  -0.36399
H    -3.92893   1.77644   0.30626
H    -3.53656   1.35709  -1.34365
H    -2.48323   2.45183  -0.42879
C    -3.16082  -0.90481   0.17444
H    -2.04484   0.59437   1.21908
H    -4.06954  -0.75661   0.75630
H    -3.45540  -1.17101  -0.84153
H    -2.62862  -1.74990   0.60850
C    -0.88938   0.39940  -1.74530
C     0.43531   0.22808  -2.27445
H    -1.70314   0.77805  -2.35671
C     1.52461   0.23629  -1.41014
C     2.72179  -0.05805  -2.12368
S     0.86150  -0.09866  -3.88836
C     2.51230  -0.25319  -3.45539
H     1.58098   1.21018  -0.60278
H     3.70541  -0.06706  -1.67714
H     3.24792  -0.45893  -4.21814
H    -0.68056  -3.23390  -0.26789
H    -0.91377  -2.41256   2.31777
H     1.49781  -1.52766   3.10582
O     1.58516   2.34394   0.16883
O     0.55039   0.98541   1.59722
C     1.04940   2.11389   1.26392
C     0.99309   3.19296   2.30530
H     0.94665   4.17508   1.84191
H     1.90655   3.15407   2.90175
H     0.15161   3.05550   2.97966
H     3.23526  -1.87497   1.09622
H     1.86237  -2.89528  -1.01428
