39
Coordinates from ORCA-job reaction4-IEIP_ts_guess_scan_11-9_orca E -1288.402103572703
  Ir      0.614220     -0.722727      0.425211
  C       0.134788     -2.835265      0.332651
  C      -0.059328     -2.376866      1.683641
  C       2.166326     -2.069369      1.125961
  C       1.493287     -2.651783     -0.004296
  C       1.202326     -1.930974      2.159240
  N      -1.066362      0.124528     -0.513573
  C      -2.340009      0.328773      0.193950
  C      -3.136977      1.523533     -0.310294
  H      -3.967062      1.705204      0.370616
  H      -3.574007      1.356828     -1.295774
  H      -2.534754      2.431771     -0.341749
  C      -3.161960     -0.954082      0.134443
  H      -2.060462      0.520354      1.230952
  H      -4.069476     -0.841212      0.726181
  H      -3.458162     -1.183782     -0.889903
  H      -2.616677     -1.809057      0.530806
  C      -0.914816      0.461995     -1.735845
  C       0.403602      0.286126     -2.254952
  H      -1.722600      0.881378     -2.327271
  C       1.448835      0.103806     -1.349917
  C       2.658138     -0.160483     -2.062732
  S       0.879640      0.163768     -3.879447
  C       2.496809     -0.152385     -3.414965
  H       1.613077      1.130925     -0.580703
  H       3.621036     -0.290195     -1.590177
  H       3.252927     -0.294470     -4.172165
  H      -0.621316     -3.260599     -0.311075
  H      -0.972057     -2.425316      2.257760
  H       1.384076     -1.488747      3.128696
  O       1.729732      2.295284      0.134473
  O       0.556135      1.020931      1.529257
  C       1.125856      2.112937      1.207389
  C       1.074384      3.225790      2.212511
  H       0.960783      4.185504      1.713526
  H       2.020649      3.255151      2.755385
  H       0.273793      3.081027      2.932440
  H       3.218889     -1.844616      1.202416
  H       1.946086     -2.904493     -0.951927
39
Coordinates from ORCA-job reaction4-IEIP_ts_guess_scan_11-9_orca E -1288.402057465423
  Ir      0.612866     -0.714433      0.420205
  C       0.140039     -2.830827      0.330478
  C      -0.055178     -2.374329      1.681907
  C       2.168451     -2.057794      1.124050
  C       1.497939     -2.643171     -0.006101
  C       1.203684     -1.923171      2.156797
  N      -1.072974      0.125219     -0.515479
  C      -2.345947      0.329349      0.193385
  C      -3.146133      1.520192     -0.314997
  H      -3.976153      1.702592      0.365765
  H      -3.583376      1.348438     -1.299525
  H      -2.546199      2.429816     -0.350577
  C      -3.165268     -0.955430      0.140152
  H      -2.065614      0.525794      1.229299
  H      -4.072400     -0.842084      0.732387
  H      -3.462131     -1.190010     -0.882907
  H      -2.617780     -1.807617      0.539449
  C      -0.920837      0.458895     -1.743461
  C       0.400123      0.283343     -2.265713
  H      -1.729881      0.874361     -2.335864
  C       1.444984      0.105488     -1.359156
  C       2.654240     -0.164386     -2.070485
  S       0.877137      0.155268     -3.889584
  C       2.493394     -0.163351     -3.422724
  H       1.617855      1.157600     -0.610456
  H       3.617050     -0.292163     -1.597041
  H       3.249660     -0.311134     -4.178583
  H      -0.614396     -3.259331     -0.313131
  H      -0.967378     -2.426730      2.256414
  H       1.383741     -1.480757      3.126488
  O       1.796706      2.261780      0.183027
  O       0.539664      1.027417      1.531427
  C       1.143573      2.105426      1.231043
  C       1.076805      3.225666      2.226624
  H       1.006511      4.184548      1.718045
  H       2.000286      3.236562      2.808071
  H       0.243940      3.104111      2.913337
  H       3.220381     -1.830375      1.201409
  H       1.951988     -2.895582     -0.953234
39
Coordinates from ORCA-job reaction4-IEIP_ts_guess_scan_11-9_orca E -1288.401024970121
  Ir      0.623082     -0.720311      0.420450
  C       0.142209     -2.838953      0.324436
  C      -0.049522     -2.392654      1.679706
  C       2.172641     -2.076569      1.120387
  C       1.500330     -2.653969     -0.012431
  C       1.208524     -1.946398      2.154228
  N      -1.061763      0.131408     -0.503400
  C      -2.333250      0.338426      0.206761
  C      -3.124686      1.538085     -0.294505
  H      -3.954936      1.720942      0.385795
  H      -3.560694      1.376102     -1.281253
  H      -2.518992      2.444197     -0.322362
  C      -3.161250     -0.940244      0.143394
  H      -2.052589      0.525498      1.244357
  H      -4.068304     -0.825087      0.735393
  H      -3.458597     -1.165356     -0.881667
  H      -2.620094     -1.799036      0.537085
  C      -0.900760      0.477466     -1.736300
  C       0.423937      0.295191     -2.266490
  H      -1.706423      0.904024     -2.325254
  C       1.464319      0.087662     -1.360088
  C       2.668534     -0.204187     -2.072635
  S       0.901299      0.173579     -3.890910
  C       2.509646     -0.187390     -3.424750
  H       1.684260      1.165205     -0.629559
  H       3.628162     -0.355518     -1.599297
  H       3.263744     -0.345970     -4.180419
  H      -0.613834     -3.262358     -0.320710
  H      -0.960617     -2.447340      2.255523
  H       1.390691     -1.511357      3.126851
  O       1.602223      2.317499      0.109565
  O       0.541456      1.018085      1.553704
  C       1.065812      2.124528      1.217120
  C       1.032612      3.236839      2.222115
  H       0.865232      4.192000      1.729348
  H       2.003947      3.295297      2.716234
  H       0.274159      3.068888      2.981202
  H       3.225611     -1.854743      1.199815
  H       1.953251     -2.904289     -0.960697
39
Coordinates from ORCA-job reaction4-IEIP_ts_guess_scan_11-9_orca E -1288.402408522460
  Ir      0.613422     -0.723819      0.423348
  C       0.129408     -2.839309      0.341320
  C      -0.058970     -2.382389      1.693436
  C       2.163405     -2.074581      1.127044
  C       1.487186     -2.658369     -0.000321
  C       1.202005     -1.935070      2.162657
  N      -1.069739      0.122592     -0.509975
  C      -2.343303      0.326289      0.196359
  C      -3.138767      1.521557     -0.309037
  H      -3.971061      1.702596      0.369321
  H      -3.572303      1.355592     -1.296196
  H      -2.536579      2.429928     -0.337795
  C      -3.165417     -0.956279      0.134272
  H      -2.065115      0.516779      1.233886
  H      -4.073956     -0.843768      0.724505
  H      -3.459898     -1.184945     -0.890799
  H      -2.620966     -1.811705      0.530825
  C      -0.913760      0.464243     -1.737711
  C       0.408855      0.291823     -2.262416
  H      -1.721421      0.886521     -2.327013
  C       1.449715      0.093195     -1.355392
  C       2.662065     -0.167681     -2.065800
  S       0.890779      0.182830     -3.886007
  C       2.506599     -0.140880     -3.418453
  H       1.628363      1.147418     -0.596729
  H       3.622964     -0.303641     -1.590643
  H       3.265995     -0.274871     -4.173772
  H      -0.629001     -3.265401     -0.299206
  H      -0.969319     -2.430605      2.271153
  H       1.387047     -1.492664      3.131397
  O       1.712048      2.312133      0.122473
  O       0.558682      1.024817      1.527608
  C       1.121506      2.119408      1.203320
  C       1.077061      3.228517      2.211462
  H       0.951915      4.189221      1.717098
  H       2.029904      3.261296      2.742508
  H       0.286235      3.076380      2.940424
  H       3.216719     -1.852929      1.201870
  H       1.937066     -2.915038     -0.948280
39
Coordinates from ORCA-job reaction4-IEIP_ts_guess_scan_11-9_orca E -1288.402453234705
  Ir      0.613510     -0.721376      0.422666
  C       0.129518     -2.836215      0.342074
  C      -0.060306     -2.379455      1.693818
  C       2.162591     -2.071292      1.129754
  C       1.487831     -2.655667      0.002040
  C       1.199993     -1.931738      2.164149
  N      -1.068989      0.123143     -0.512200
  C      -2.342687      0.325485      0.194302
  C      -3.141491      1.518276     -0.311765
  H      -3.973544      1.698301      0.367171
  H      -3.575690      1.349994     -1.298213
  H      -2.541404      2.427964     -0.342320
  C      -3.162197     -0.958961      0.135479
  H      -2.063933      0.518136      1.231368
  H      -4.070515     -0.847249      0.726238
  H      -3.456921     -1.190276     -0.888909
  H      -2.615526     -1.812369      0.533341
  C      -0.914673      0.465004     -1.738334
  C       0.406030      0.293103     -2.264123
  H      -1.723242      0.886996     -2.326509
  C       1.447526      0.092896     -1.358400
  C       2.658629     -0.168050     -2.070297
  S       0.887949      0.196427     -3.888415
  C       2.501296     -0.141144     -3.422778
  H       1.628042      1.153439     -0.609511
  H       3.619350     -0.308893     -1.596395
  H       3.259134     -0.278303     -4.179103
  H      -0.628110     -3.262506     -0.299216
  H      -0.971443     -2.427198      2.270359
  H       1.383949     -1.488823      3.132874
  O       1.744641      2.294636      0.142081
  O       0.554603      1.025658      1.527408
  C       1.128504      2.115034      1.210458
  C       1.077583      3.228292      2.214297
  H       0.971352      4.188671      1.714879
  H       2.021071      3.253042      2.762264
  H       0.272301      3.086893      2.929494
  H       3.215828     -1.849739      1.205936
  H       1.938808     -2.912947     -0.945221
39
Coordinates from ORCA-job reaction4-IEIP_ts_guess_scan_11-9_orca E -1288.402493432928
  Ir      0.613227     -0.723963      0.423561
  C       0.126259     -2.838121      0.346384
  C      -0.062136     -2.380804      1.698102
  C       2.160633     -2.075269      1.132094
  C       1.484706     -2.659650      0.005225
  C       1.198624     -1.933956      2.167005
  N      -1.068795      0.122433     -0.511761
  C      -2.343021      0.323695      0.194307
  C      -3.141939      1.516945     -0.310480
  H      -3.974323      1.695780      0.368327
  H      -3.575687      1.349863     -1.297335
  H      -2.542114      2.426869     -0.339526
  C      -3.162545     -0.960679      0.133619
  H      -2.064857      0.515081      1.231799
  H      -4.071308     -0.849525      0.723786
  H      -3.456471     -1.190951     -0.891240
  H      -2.616238     -1.814453      0.531065
  C      -0.913678      0.467152     -1.737440
  C       0.406749      0.295096     -2.264279
  H      -1.722157      0.890501     -2.324775
  C       1.447148      0.087690     -1.358744
  C       2.659105     -0.168859     -2.070837
  S       0.889479      0.204038     -3.888608
  C       2.504016     -0.128431     -3.423273
  H       1.630499      1.152052     -0.611746
  H       3.619265     -0.312871     -1.596751
  H       3.263279     -0.257385     -4.179618
  H      -0.632220     -3.264050     -0.294144
  H      -0.973025     -2.426882      2.275140
  H       1.383749     -1.490495      3.135261
  O       1.743049      2.295802      0.136575
  O       0.558765      1.025712      1.526186
  C       1.133124      2.114213      1.208549
  C       1.079750      3.230177      2.209257
  H       0.969426      4.188888      1.707512
  H       2.023976      3.259600      2.755673
  H       0.276003      3.087865      2.926000
  H       3.214240     -1.855359      1.207878
  H       1.934812     -2.918556     -0.942010
39
Coordinates from ORCA-job reaction4-IEIP_ts_guess_scan_11-9_orca E -1288.402538132267
  Ir      0.611369     -0.728749      0.425018
  C       0.120207     -2.841542      0.356345
  C      -0.066910     -2.382308      1.707531
  C       2.155858     -2.080491      1.139284
  C       1.479158     -2.666452      0.014010
  C       1.193943     -1.935616      2.174309
  N      -1.069181      0.119572     -0.512220
  C      -2.344501      0.317993      0.192998
  C      -3.144507      1.511497     -0.309378
  H      -3.977528      1.687497      0.369324
  H      -3.577440      1.346339     -1.296932
  H      -2.545836      2.422290     -0.335684
  C      -3.163085     -0.966829      0.128906
  H      -2.067566      0.507280      1.231272
  H      -4.072889     -0.857141      0.717712
  H      -3.455092     -1.195608     -0.896842
  H      -2.616998     -1.820831      0.525964
  C      -0.912319      0.471937     -1.736126
  C       0.408101      0.302724     -2.264384
  H      -1.720386      0.899587     -2.320922
  C       1.445666      0.077825     -1.359415
  C       2.659480     -0.169148     -2.071913
  S       0.895988      0.239769     -3.888370
  C       2.508155     -0.105334     -3.423947
  H       1.634845      1.149101     -0.614867
  H       3.617725     -0.324894     -1.597663
  H       3.269243     -0.223545     -4.180225
  H      -0.639011     -3.267939     -0.283014
  H      -0.977848     -2.425177      2.284682
  H       1.380191     -1.489954      3.141340
  O       1.736667      2.301442      0.121720
  O       0.564553      1.027544      1.520329
  C       1.134407      2.116422      1.198416
  C       1.089964      3.232116      2.199890
  H       0.973493      4.190832      1.699640
  H       2.039497      3.262575      2.737009
  H       0.293436      3.088425      2.924356
  H       3.209942     -1.862920      1.215103
  H       1.928578     -2.929099     -0.932516
39
Coordinates from ORCA-job reaction4-IEIP_ts_guess_scan_11-9_orca E -1288.402546473444
  Ir      0.610509     -0.732036      0.425273
  C       0.117009     -2.843353      0.361621
  C      -0.071178     -2.382764      1.712142
  C       2.152437     -2.083147      1.145665
  C       1.476868     -2.670501      0.020662
  C       1.189188     -1.935997      2.179387
  N      -1.068214      0.117522     -0.513327
  C      -2.343329      0.315229      0.192424
  C      -3.144378      1.508468     -0.308855
  H      -3.976960      1.683531      0.370618
  H      -3.577978      1.343546     -1.296158
  H      -2.546325      2.419678     -0.335085
  C      -3.161401     -0.969896      0.128584
  H      -2.065909      0.504438      1.230626
  H      -4.071400     -0.860233      0.717096
  H      -3.452979     -1.199116     -0.897172
  H      -2.615202     -1.823593      0.526148
  C      -0.911645      0.474282     -1.735468
  C       0.407671      0.306120     -2.265053
  H      -1.719753      0.904836     -2.318006
  C       1.443976      0.070798     -1.361234
  C       2.658513     -0.168983     -2.074798
  S       0.897914      0.262620     -3.888883
  C       2.509015     -0.088637     -3.426233
  H       1.636234      1.147920     -0.621525
  H       3.615775     -0.332634     -1.601282
  H       3.271020     -0.198604     -4.182850
  H      -0.641672     -3.270233     -0.278049
  H      -0.983032     -2.423434      2.287993
  H       1.374789     -1.488638      3.145760
  O       1.743110      2.297607      0.118484
  O       0.566013      1.027177      1.515721
  C       1.137746      2.114362      1.194222
  C       1.093177      3.232114      2.193564
  H       0.978370      4.190041      1.691420
  H       2.042017      3.262530      2.731885
  H       0.295489      3.090599      2.917201
  H       3.206667     -1.866784      1.222926
  H       1.927221     -2.935644     -0.924706
39
Coordinates from ORCA-job reaction4-IEIP_ts_guess_scan_11-9_orca E -1288.402546570482
  Ir      0.610528     -0.733147      0.424981
  C       0.117562     -2.844189      0.362134
  C      -0.072568     -2.382919      1.712214
  C       2.151811     -2.083118      1.148707
  C       1.478004     -2.671384      0.023148
  C       1.187043     -1.935602      2.181030
  N      -1.068089      0.116732     -0.513860
  C      -2.342897      0.314517      0.192552
  C      -3.143935      1.508186     -0.307754
  H      -3.976107      1.682999      0.372302
  H      -3.578082      1.343934     -1.294921
  H      -2.545758      2.419325     -0.333731
  C      -3.161307     -0.970353      0.128345
  H      -2.065053      0.503309      1.230699
  H      -4.071312     -0.860545      0.716836
  H      -3.452894     -1.199212     -0.897480
  H      -2.615446     -1.824364      0.525669
  C      -0.911859      0.474630     -1.735535
  C       0.407149      0.306275     -2.265399
  H      -1.719875      0.906184     -2.317406
  C       1.443428      0.069056     -1.362074
  C       2.658114     -0.168501     -2.076056
  S       0.898031      0.268595     -3.889189
  C       2.508601     -0.085490     -3.427356
  H       1.635570      1.147535     -0.623792
  H       3.615244     -0.334045     -1.602930
  H       3.270616     -0.194050     -4.184165
  H      -0.640010     -3.271809     -0.278350
  H      -0.985263     -2.423345      2.286748
  H       1.371216     -1.487560      3.147355
  O       1.744921      2.296082      0.117624
  O       0.565668      1.027083      1.514190
  C       1.137873      2.113965      1.192644
  C       1.093971      3.231785      2.191948
  H       0.979954      4.189747      1.689682
  H       2.042768      3.261486      2.730388
  H       0.296086      3.090968      2.915507
  H       3.205877     -1.866473      1.227412
  H       1.929791     -2.937097     -0.921376
39
Coordinates from ORCA-job reaction4-IEIP_ts_guess_scan_11-9_orca E -1288.402546824796
  Ir      0.610698     -0.733554      0.424592
  C       0.118774     -2.844562      0.361450
  C      -0.073813     -2.382787      1.711092
  C       2.151430     -2.082364      1.151365
  C       1.479816     -2.671374      0.024923
  C       1.184812     -1.934921      2.182040
  N      -1.067962      0.116528     -0.513901
  C      -2.342485      0.314172      0.193070
  C      -3.143356      1.508418     -0.306162
  H      -3.975306      1.682839      0.374279
  H      -3.577754      1.345113     -1.293371
  H      -2.545015      2.419470     -0.331488
  C      -3.161115     -0.970494      0.127910
  H      -2.064358      0.502243      1.231248
  H      -4.071125     -0.860956      0.716452
  H      -3.452719     -1.198537     -0.898088
  H      -2.615441     -1.824967      0.524531
  C      -0.912146      0.474872     -1.735438
  C       0.406654      0.306004     -2.265623
  H      -1.720142      0.906960     -2.316920
  C       1.443200      0.068423     -1.362750
  C       2.657719     -0.168545     -2.077149
  S       0.897295      0.269761     -3.889547
  C       2.507841     -0.084874     -3.428386
  H       1.635117      1.147175     -0.625079
  H       3.614928     -0.334713     -1.604408
  H       3.269673     -0.193134     -4.185419
  H      -0.637413     -3.272972     -0.280137
  H      -0.987478     -2.423373      2.284078
  H       1.367118     -1.486461      3.148519
  O       1.745299      2.295350      0.116791
  O       0.565358      1.026948      1.513248
  C       1.137777      2.113777      1.191569
  C       1.094376      3.231352      2.191132
  H       0.980380      4.189430      1.689065
  H       2.043377      3.260731      2.729236
  H       0.296726      3.090586      2.914947
  H       3.205253     -1.865170      1.231789
  H       1.933380     -2.937204     -0.918720
