39
Generated by autodE on: 2023-08-15. E = -1288.403954 Ha
Ir    0.61268  -0.74200   0.41381
C     0.15799  -2.85614   0.33899
C    -0.11118  -2.41452   1.68421
C     2.13111  -2.05906   1.23885
C     1.53607  -2.66317   0.08264
C     1.10317  -1.94154   2.22137
N    -1.07729   0.10369  -0.50716
C    -2.35002   0.28283   0.20739
C    -3.13964   1.50421  -0.24153
H    -3.97199   1.65633   0.44373
H    -3.57215   1.38907  -1.23631
H    -2.53249   2.40961  -0.22565
C    -3.17806  -0.99191   0.08911
H    -2.07139   0.42660   1.25249
H    -4.08207  -0.90618   0.69076
H    -3.48000  -1.16906  -0.94393
H    -2.63298  -1.86784   0.43721
C    -0.92969   0.48056  -1.72479
C     0.38527   0.31430  -2.26224
H    -1.74060   0.92304  -2.29411
C     1.40729   0.01110  -1.36147
C     2.62738  -0.19877  -2.07653
S     0.89463   0.37070  -3.88040
C     2.49395  -0.03056  -3.42227
H     1.63870   1.17286  -0.67087
H     3.57697  -0.40919  -1.60583
H     3.26388  -0.10415  -4.17530
H    -0.55111  -3.30579  -0.34053
H    -1.05525  -2.47003   2.20405
H     1.22265  -1.49373   3.19780
O     1.75787   2.30066   0.04826
O     0.59979   1.04454   1.47509
C     1.16778   2.12312   1.13983
C     1.15450   3.25129   2.12698
H     1.03181   4.20527   1.61919
H     2.11659   3.28145   2.64139
H     0.37412   3.11970   2.87088
H     3.17579  -1.82983   1.38097
H     2.04530  -2.91829  -0.83534
