39
Coordinates from ORCA-job reaction4-IEIP_ts_guess_scan_12-6_orca E -1288.399431965910
  Ir      0.622094     -0.717283      0.407507
  C       0.145157     -2.834023      0.317500
  C      -0.041130     -2.380658      1.671149
  C       2.179273     -2.063712      1.099077
  C       1.501122     -2.647467     -0.027382
  C       1.220900     -1.930971      2.139204
  N      -1.066817      0.131791     -0.516680
  C      -2.334587      0.342537      0.198245
  C      -3.134736      1.533352     -0.309979
  H      -3.961106      1.719475      0.374246
  H      -3.577214      1.359009     -1.291722
  H      -2.533405      2.441807     -0.351160
  C      -3.156975     -0.940821      0.153885
  H      -2.046564      0.541177      1.231553
  H      -4.059428     -0.823286      0.752374
  H      -3.461821     -1.177400     -0.866328
  H      -2.608528     -1.793008      0.551782
  C      -0.918150      0.467729     -1.739624
  C       0.400758      0.278739     -2.253631
  H      -1.722560      0.893204     -2.330942
  C       1.436858      0.091357     -1.333891
  C       2.651399     -0.183887     -2.039454
  S       0.888124      0.140622     -3.870514
  C       2.501033     -0.184296     -3.391623
  H       1.598970      1.117165     -0.606823
  H       3.609947     -0.313814     -1.558108
  H       3.261527     -0.335403     -4.142632
  H      -0.613885     -3.260777     -0.321819
  H      -0.950743     -2.430857      2.249984
  H       1.407712     -1.490190      3.108327
  O       1.706088      2.320312      0.128818
  O       0.558840      1.017922      1.520507
  C       1.112002      2.122496      1.200642
  C       1.045727      3.223490      2.219323
  H       0.947920      4.190122      1.730777
  H       1.980244      3.239058      2.782785
  H       0.230217      3.074508      2.921691
  H       3.232138     -1.838905      1.171129
  H       1.948969     -2.899926     -0.977454
39
Coordinates from ORCA-job reaction4-IEIP_ts_guess_scan_12-6_orca E -1288.399479442788
  Ir      0.620536     -0.710059      0.403161
  C       0.149234     -2.830774      0.316716
  C      -0.037441     -2.379095      1.670779
  C       2.180802     -2.053957      1.097581
  C       1.504535     -2.640674     -0.028386
  C       1.222090     -1.924441      2.137537
  N      -1.073119      0.131994     -0.518198
  C      -2.340410      0.342624      0.197691
  C      -3.143075      1.530231     -0.313989
  H      -3.969541      1.716918      0.369931
  H      -3.585509      1.351774     -1.295023
  H      -2.543588      2.439771     -0.358422
  C      -3.160621     -0.942274      0.158392
  H      -2.051949      0.545169      1.230165
  H      -4.062878     -0.824389      0.757106
  H      -3.465799     -1.182821     -0.860809
  H      -2.610385     -1.792146      0.558758
  C      -0.923520      0.464439     -1.746729
  C       0.397943      0.276484     -2.263697
  H      -1.729110      0.886354     -2.338937
  C       1.433197      0.092249     -1.342144
  C       2.648239     -0.186639     -2.046200
  S       0.886940      0.135066     -3.879934
  C       2.498885     -0.192042     -3.398390
  H       1.602477      1.139354     -0.633222
  H       3.606621     -0.314592     -1.563819
  H       3.259951     -0.347106     -4.147914
  H      -0.608563     -3.260509     -0.322113
  H      -0.946285     -2.432948      2.250391
  H       1.407699     -1.483281      3.106725
  O       1.765498      2.291928      0.170022
  O       0.544931      1.023792      1.522799
  C       1.128508      2.116222      1.221102
  C       1.048985      3.224001      2.231112
  H       0.988581      4.189769      1.734786
  H       1.963055      3.223545      2.827385
  H       0.206114      3.095505      2.904513
  H       3.233163     -1.826859      1.170042
  H       1.953179     -2.893392     -0.978030
39
Coordinates from ORCA-job reaction4-IEIP_ts_guess_scan_12-6_orca E -1288.398544470459
  Ir      0.629590     -0.715242      0.403763
  C       0.149989     -2.839367      0.313324
  C      -0.032379     -2.397869      1.671094
  C       2.183798     -2.072494      1.094989
  C       1.505291     -2.652109     -0.032874
  C       1.226168     -1.947274      2.136379
  N      -1.062982      0.137676     -0.506201
  C      -2.329195      0.350601      0.210248
  C      -3.123093      1.546855     -0.294752
  H      -3.950300      1.733648      0.388173
  H      -3.563637      1.378058     -1.278367
  H      -2.517965      2.453042     -0.331090
  C      -3.157588     -0.928632      0.160414
  H      -2.041105      0.543629      1.244711
  H      -4.060190     -0.809486      0.758343
  H      -3.462491     -1.159749     -0.861076
  H      -2.613449     -1.784861      0.555538
  C      -0.903986      0.481982     -1.740379
  C       0.421477      0.289421     -2.265454
  H      -1.706517      0.914153     -2.329194
  C       1.451069      0.074917     -1.342955
  C       2.662288     -0.222873     -2.047952
  S       0.912290      0.157617     -3.882167
  C       2.516091     -0.210519     -3.400157
  H       1.664636      1.147235     -0.653035
  H       3.617379     -0.373198     -1.565123
  H       3.275966     -0.374000     -4.148935
  H      -0.609736     -3.264474     -0.326366
  H      -0.939647     -2.454380      2.252674
  H       1.414191     -1.512876      3.108150
  O       1.571607      2.342291      0.097559
  O       0.547850      1.014838      1.545191
  C       1.052372      2.133289      1.207052
  C       1.010644      3.234719      2.225178
  H       0.854617      4.196453      1.741950
  H       1.975002      3.281210      2.734018
  H       0.241687      3.061735      2.972753
  H       3.237252     -1.850926      1.168872
  H       1.952374     -2.903850     -0.983553
39
Coordinates from ORCA-job reaction4-IEIP_ts_guess_scan_12-6_orca E -1288.399766158495
  Ir      0.621281     -0.717155      0.405627
  C       0.140260     -2.837849      0.326355
  C      -0.040382     -2.386733      1.681183
  C       2.176431     -2.068146      1.100507
  C       1.495421     -2.653467     -0.023062
  C       1.220577     -1.935006      2.142888
  N      -1.069906      0.130280     -0.513284
  C      -2.337587      0.340786      0.200378
  C      -3.136037      1.532085     -0.309250
  H      -3.964550      1.717883      0.372442
  H      -3.575170      1.358236     -1.292595
  H      -2.534459      2.440487     -0.348130
  C      -3.160243     -0.942303      0.154115
  H      -2.050913      0.538512      1.234227
  H      -4.063733     -0.824947      0.751066
  H      -3.463341     -1.178235     -0.866775
  H      -2.612531     -1.794730      0.552568
  C      -0.916973      0.468909     -1.742341
  C       0.405772      0.283457     -2.262341
  H      -1.721710      0.896152     -2.331732
  C       1.437233      0.080974     -1.340058
  C       2.655021     -0.190574     -2.043522
  S       0.899103      0.158832     -3.878444
  C       2.510536     -0.173179     -3.396142
  H       1.613344      1.134921     -0.629021
  H       3.611722     -0.325708     -1.559659
  H       3.274469     -0.316379     -4.145131
  H      -0.620911     -3.265496     -0.309848
  H      -0.947492     -2.437569      2.263688
  H       1.410361     -1.494014      3.111330
  O       1.688641      2.331994      0.120345
  O       0.560109      1.020691      1.521867
  C       1.106093      2.127240      1.199356
  C       1.047912      3.226045      2.219618
  H       0.939851      4.193144      1.734127
  H       1.989144      3.244706      2.771681
  H       0.241504      3.071568      2.931076
  H       3.229980     -1.846096      1.170922
  H       1.940543     -2.910126     -0.973289
39
Coordinates from ORCA-job reaction4-IEIP_ts_guess_scan_12-6_orca E -1288.399795374374
  Ir      0.620364     -0.716525      0.405765
  C       0.138550     -2.836425      0.329378
  C      -0.042419     -2.384768      1.683793
  C       2.174603     -2.066831      1.103372
  C       1.494004     -2.652896     -0.019818
  C       1.218352     -1.932892      2.145342
  N      -1.069751      0.129866     -0.514939
  C      -2.337954      0.338476      0.198350
  C      -3.139065      1.528155     -0.311008
  H      -3.967701      1.712395      0.370967
  H      -3.578298      1.353299     -1.294104
  H      -2.539288      2.437719     -0.350236
  C      -3.158300     -0.946188      0.153120
  H      -2.051372      0.536957      1.232155
  H      -4.061934     -0.830118      0.750133
  H      -3.461016     -1.183382     -0.867574
  H      -2.608859     -1.797228      0.552144
  C      -0.917789      0.470167     -1.742082
  C       0.403599      0.286361     -2.262746
  H      -1.723142      0.897996     -2.330128
  C       1.435034      0.079632     -1.341419
  C       2.652461     -0.189680     -2.045922
  S       0.898543      0.178036     -3.879386
  C       2.507340     -0.168143     -3.398443
  H       1.612362      1.136929     -0.635367
  H       3.608576     -0.330707     -1.562751
  H       3.270495     -0.311856     -4.148142
  H      -0.622510     -3.264283     -0.306790
  H      -0.949903     -2.434539      2.265827
  H       1.407954     -1.490929      3.113385
  O       1.714356      2.321303      0.130830
  O       0.559790      1.021884      1.519760
  C       1.115787      2.123859      1.202335
  C       1.051685      3.226448      2.218590
  H       0.956078      4.192823      1.729048
  H       1.985917      3.240761      2.782567
  H       0.235275      3.079360      2.920175
  H       3.228197     -1.845159      1.174186
  H       1.939350     -2.910690     -0.969625
39
Coordinates from ORCA-job reaction4-IEIP_ts_guess_scan_12-6_orca E -1288.399825605225
  Ir      0.618877     -0.718900      0.406877
  C       0.133997     -2.837857      0.336419
  C      -0.045920     -2.384963      1.690435
  C       2.171073     -2.069711      1.108259
  C       1.489759     -2.656764     -0.013728
  C       1.215066     -1.933413      2.150392
  N      -1.070005      0.128527     -0.515779
  C      -2.339121      0.335000      0.196698
  C      -3.141812      1.524031     -0.311672
  H      -3.970926      1.706338      0.370199
  H      -3.580525      1.349510     -1.295060
  H      -2.543328      2.434505     -0.349770
  C      -3.158034     -0.950593      0.150359
  H      -2.053366      0.532915      1.230915
  H      -4.062350     -0.835736      0.746567
  H      -3.459461     -1.187792     -0.870715
  H      -2.607975     -1.801032      0.549683
  C      -0.917647      0.472523     -1.741555
  C       0.402798      0.289466     -2.263478
  H      -1.723346      0.901517     -2.328259
  C       1.432818      0.073218     -1.342481
  C       2.651399     -0.189267     -2.047529
  S       0.899377      0.193233     -3.880238
  C       2.509268     -0.148704     -3.399978
  H       1.613192      1.136357     -0.641500
  H       3.606622     -0.335638     -1.564254
  H       3.274304     -0.281207     -4.149845
  H      -0.627715     -3.265847     -0.298882
  H      -0.953393     -2.432505      2.272645
  H       1.405542     -1.489886      3.117557
  O       1.724486      2.317034      0.129096
  O       0.562946      1.023073      1.516781
  C       1.122740      2.122304      1.199724
  C       1.059459      3.227708      2.213226
  H       0.966933      4.193184      1.721342
  H       1.992714      3.241240      2.778844
  H       0.241416      3.084109      2.913645
  H       3.225008     -1.849622      1.178900
  H       1.934498     -2.917164     -0.963101
39
Coordinates from ORCA-job reaction4-IEIP_ts_guess_scan_12-6_orca E -1288.399859019283
  Ir      0.616321     -0.724338      0.408345
  C       0.127077     -2.841615      0.348152
  C      -0.051921     -2.386630      1.701498
  C       2.165196     -2.074998      1.117417
  C       1.483552     -2.664173     -0.002887
  C       1.208946     -1.934899      2.159368
  N      -1.070256      0.125033     -0.517173
  C      -2.340414      0.328457      0.194715
  C      -3.144876      1.517306     -0.311136
  H      -3.974307      1.696635      0.371062
  H      -3.583275      1.344284     -1.294948
  H      -2.547851      2.428852     -0.347046
  C      -3.157917     -0.957962      0.145816
  H      -2.055636      0.524670      1.229624
  H      -4.063300     -0.844550      0.740648
  H      -3.457341     -1.194440     -0.876015
  H      -2.607688     -1.808109      0.545317
  C      -0.916554      0.477739     -1.740468
  C       0.403399      0.298238     -2.264050
  H      -1.722083      0.911493     -2.323889
  C       1.430085      0.061999     -1.343702
  C       2.650807     -0.188821     -2.049592
  S       0.906551      0.238268     -3.880289
  C       2.513059     -0.120791     -3.401468
  H       1.616736      1.134011     -0.648869
  H       3.603684     -0.349741     -1.566334
  H       3.280219     -0.240764     -4.151298
  H      -0.635179     -3.270300     -0.286047
  H      -0.959673     -2.430664      2.283486
  H       1.400233     -1.488416      3.125024
  O       1.725458      2.318455      0.116295
  O       0.568500      1.024777      1.509718
  C       1.127120      2.122664      1.189668
  C       1.071304      3.229378      2.202392
  H       0.975678      4.194359      1.710203
  H       2.008357      3.243301      2.761695
  H       0.257891      3.086613      2.908343
  H       3.219573     -1.857150      1.188379
  H       1.927895     -2.928979     -0.951215
39
Coordinates from ORCA-job reaction4-IEIP_ts_guess_scan_12-6_orca E -1288.399865788506
  Ir      0.616512     -0.726555      0.407967
  C       0.126801     -2.843076      0.348676
  C      -0.053781     -2.387655      1.701749
  C       2.164169     -2.076588      1.120363
  C       1.483955     -2.666269     -0.000522
  C       1.206558     -1.935861      2.161066
  N      -1.069136      0.124162     -0.517335
  C      -2.338505      0.328340      0.195685
  C      -3.142520      1.517813     -0.309347
  H      -3.971194      1.697485      0.373697
  H      -3.581880      1.345344     -1.292831
  H      -2.544973      2.429015     -0.345498
  C      -3.156814     -0.957507      0.147044
  H      -2.052792      0.524337      1.230357
  H      -4.062038     -0.843305      0.741974
  H      -3.456534     -1.193910     -0.874704
  H      -2.607216     -1.808069      0.546589
  C      -0.915658      0.478926     -1.740131
  C       0.403993      0.298905     -2.264286
  H      -1.720896      0.914592     -2.322475
  C       1.430239      0.058888     -1.344497
  C       2.651135     -0.189608     -2.050882
  S       0.907884      0.245227     -3.880512
  C       2.514016     -0.115855     -3.402558
  H       1.618225      1.132644     -0.651363
  H       3.603663     -0.353619     -1.567947
  H       3.281479     -0.232887     -4.152538
  H      -0.634599     -3.272042     -0.286360
  H      -0.962367     -2.431085      2.282477
  H       1.396736     -1.488803      3.126667
  O       1.719216      2.319408      0.111261
  O       0.568428      1.023455      1.507747
  C       1.124768      2.122128      1.186657
  C       1.069066      3.228879      2.199302
  H       0.969365      4.193470      1.707133
  H       2.007816      3.245341      2.755655
  H       0.258219      3.084164      2.907797
  H       3.218488     -1.858899      1.192735
  H       1.929539     -2.931738     -0.948074
39
Coordinates from ORCA-job reaction4-IEIP_ts_guess_scan_12-6_orca E -1288.399867711196
  Ir      0.616769     -0.727728      0.407569
  C       0.127696     -2.843936      0.348441
  C      -0.055104     -2.387882      1.701133
  C       2.163754     -2.076697      1.123272
  C       1.485512     -2.667096      0.001563
  C       1.204410     -1.935702      2.162416
  N      -1.068972      0.123757     -0.517456
  C      -2.337992      0.327867      0.196324
  C      -3.141817      1.517976     -0.307535
  H      -3.970155      1.697250      0.376038
  H      -3.581572      1.346506     -1.291012
  H      -2.544106      2.429103     -0.343056
  C      -3.156712     -0.957646      0.146697
  H      -2.051905      0.523143      1.230994
  H      -4.062023     -0.843443      0.741507
  H      -3.456330     -1.193287     -0.875249
  H      -2.607620     -1.808754      0.545746
  C      -0.915617      0.479961     -1.739947
  C       0.403946      0.299219     -2.264399
  H      -1.720573      0.916851     -2.321711
  C       1.430222      0.057531     -1.345105
  C       2.651034     -0.189976     -2.051952
  S       0.907926      0.248256     -3.880713
  C       2.513874     -0.114036     -3.403527
  H       1.618523      1.131824     -0.652596
  H       3.603493     -0.355500     -1.569378
  H       3.281291     -0.229999     -4.153714
  H      -0.632449     -3.273624     -0.287606
  H      -0.964626     -2.431204      2.280402
  H       1.392952     -1.488153      3.128101
  O       1.717193      2.319639      0.108695
  O       0.568218      1.023332      1.506383
  C       1.123331      2.122509      1.184431
  C       1.069173      3.228677      2.197718
  H       0.968101      4.193421      1.706116
  H       2.009052      3.245251      2.752166
  H       0.259818      3.083353      2.907778
  H       3.217890     -1.858686      1.197320
  H       1.932766     -2.932887     -0.945118
39
Coordinates from ORCA-job reaction4-IEIP_ts_guess_scan_12-6_orca E -1288.399867415713
  Ir      0.617431     -0.729030      0.406923
  C       0.129652     -2.844924      0.347161
  C      -0.057139     -2.388086      1.699256
  C       2.163272     -2.076426      1.127749
  C       1.488568     -2.667757      0.004445
  C       1.200816     -1.935391      2.164175
  N      -1.068726      0.123670     -0.517131
  C      -2.337332      0.327185      0.197672
  C      -3.140886      1.518472     -0.303893
  H      -3.968947      1.696651      0.380321
  H      -3.580912      1.349064     -1.287599
  H      -2.543012      2.429564     -0.337738
  C      -3.156532     -0.957896      0.145608
  H      -2.050858      0.520780      1.232504
  H      -4.062010     -0.844299      0.740300
  H      -3.455942     -1.191654     -0.876824
  H      -2.608069     -1.810064      0.543228
  C      -0.915722      0.481771     -1.739209
  C       0.403625      0.299916     -2.264336
  H      -1.720337      0.920437     -2.320057
  C       1.430267      0.056329     -1.345992
  C       2.650550     -0.190840     -2.053818
  S       0.906974      0.251332     -3.880964
  C       2.512692     -0.113231     -3.405259
  H       1.619042      1.130693     -0.653780
  H       3.603097     -0.358205     -1.572037
  H       3.279630     -0.228904     -4.155973
  H      -0.628244     -3.275798     -0.290753
  H      -0.968281     -2.431528      2.275972
  H       1.386364     -1.487357      3.130205
  O       1.717935      2.319071      0.106603
  O       0.568874      1.023104      1.504666
  C       1.124666      2.122165      1.182623
  C       1.068679      3.228830      2.195128
  H       0.965988      4.193077      1.702836
  H       2.008660      3.247246      2.749329
  H       0.259678      3.082738      2.905407
  H       3.217068     -1.857810      1.204788
  H       1.938791     -2.933704     -0.940797
39
Coordinates from ORCA-job reaction4-IEIP_ts_guess_scan_12-6_orca E -1288.399866770262
  Ir      0.617891     -0.728989      0.406414
  C       0.132258     -2.845060      0.345343
  C      -0.059050     -2.387860      1.696849
  C       2.162838     -2.074554      1.132225
  C       1.492209     -2.666879      0.007141
  C       1.196914     -1.934248      2.165751
  N      -1.068764      0.123957     -0.516651
  C      -2.337262      0.326418      0.198562
  C      -3.140709      1.518656     -0.300965
  H      -3.968914      1.695505      0.383415
  H      -3.580443      1.351187     -1.285129
  H      -2.542854      2.429831     -0.332856
  C      -3.156475     -0.958544      0.143856
  H      -2.050780      0.518291      1.233702
  H      -4.062103     -0.846159      0.738563
  H      -3.455674     -1.190254     -0.879105
  H      -2.608143     -1.811617      0.539735
  C      -0.916271      0.482883     -1.738496
  C       0.402774      0.300513     -2.264378
  H      -1.720878      0.922419     -2.318696
  C       1.429980      0.056338     -1.346863
  C       2.649453     -0.191895     -2.055684
  S       0.904684      0.251144     -3.881443
  C       2.510540     -0.114341     -3.407022
  H       1.619378      1.130447     -0.654895
  H       3.602284     -0.359917     -1.574698
  H       3.276797     -0.230808     -4.158311
  H      -0.623065     -3.277340     -0.294649
  H      -0.971900     -2.432004      2.270822
  H       1.378962     -1.485941      3.132316
  O       1.720050      2.318318      0.106047
  O       0.569230      1.023420      1.503525
  C       1.125627      2.122281      1.181468
  C       1.070047      3.228742      2.194179
  H       0.967237      4.193083      1.702075
  H       2.010283      3.247078      2.747967
  H       0.261315      3.082595      2.904725
  H       3.216188     -1.854975      1.212525
  H       1.945711     -2.932531     -0.936623
39
Coordinates from ORCA-job reaction4-IEIP_ts_guess_scan_12-6_orca E -1288.399866236710
  Ir      0.618592     -0.728367      0.405996
  C       0.137574     -2.845326      0.341901
  C      -0.061986     -2.388463      1.692583
  C       2.162262     -2.070627      1.140240
  C       1.499219     -2.664619      0.011848
  C       1.190017     -1.932712      2.168674
  N      -1.069271      0.124322     -0.515596
  C      -2.337934      0.324802      0.199762
  C      -3.140739      1.519126     -0.295834
  H      -3.969463      1.693586      0.388510
  H      -3.579629      1.355609     -1.281034
  H      -2.542554      2.430210     -0.323721
  C      -3.157490     -0.959740      0.139741
  H      -2.051832      0.512954      1.235702
  H      -4.063177     -0.849830      0.734825
  H      -3.456629     -1.187014     -0.884243
  H      -2.609326     -1.814710      0.531754
  C      -0.917658      0.483858     -1.737236
  C       0.400839      0.301455     -2.264485
  H      -1.722571      0.924066     -2.316530
  C       1.428994      0.056713     -1.348171
  C       2.647111     -0.193684     -2.058660
  S       0.900091      0.249827     -3.882266
  C       2.506293     -0.117091     -3.409822
  H       1.619728      1.130559     -0.656553
  H       3.600534     -0.362019     -1.578957
  H       3.271364     -0.235247     -4.162060
  H      -0.612971     -3.280158     -0.301947
  H      -0.977848     -2.434555      2.261600
  H       1.365509     -1.484268      3.136385
  O       1.724215      2.317480      0.105356
  O       0.570940      1.024472      1.502420
  C       1.128761      2.122603      1.180310
  C       1.073932      3.229330      2.192807
  H       0.970517      4.193574      1.700611
  H       2.014737      3.248141      2.745623
  H       0.265862      3.083203      2.904087
  H       3.214730     -1.849115      1.226506
  H       1.958627     -2.929151     -0.929383
39
Coordinates from ORCA-job reaction4-IEIP_ts_guess_scan_12-6_orca E -1288.399867356094
  Ir      0.618956     -0.727681      0.405947
  C       0.142694     -2.845636      0.338248
  C      -0.064689     -2.390224      1.688430
  C       2.161530     -2.066823      1.147661
  C       1.505822     -2.662100      0.015980
  C       1.183321     -1.932125      2.171397
  N      -1.069777      0.124243     -0.514621
  C      -2.338544      0.323414      0.200813
  C      -3.140279      1.519916     -0.291231
  H      -3.969288      1.692765      0.393153
  H      -3.578689      1.360031     -1.277242
  H      -2.541257      2.430538     -0.315827
  C      -3.158809     -0.960495      0.136413
  H      -2.052693      0.508077      1.237466
  H      -4.064046     -0.852688      0.732555
  H      -3.458707     -1.183556     -0.888288
  H      -2.610601     -1.817292      0.524432
  C      -0.919095      0.483483     -1.736354
  C       0.398909      0.301584     -2.264784
  H      -1.724597      0.923445     -2.315071
  C       1.427751      0.056754     -1.349250
  C       2.644984     -0.195081     -2.060928
  S       0.896192      0.248225     -3.883037
  C       2.502802     -0.119310     -3.411942
  H       1.619714      1.130866     -0.658237
  H       3.598890     -0.363199     -1.582096
  H       3.267049     -0.238487     -4.164861
  H      -0.603269     -3.282580     -0.309460
  H      -0.983421     -2.438558      2.252620
  H       1.352466     -1.483882      3.140328
  O       1.726223      2.317483      0.103866
  O       0.572865      1.025439      1.501767
  C       1.131222      2.123007      1.179188
  C       1.077874      3.230146      2.191404
  H       0.972846      4.194160      1.699089
  H       2.019841      3.249935      2.742199
  H       0.271321      3.083774      2.904346
  H       3.213108     -1.843438      1.239689
  H       1.970752     -2.924939     -0.923024
39
Coordinates from ORCA-job reaction4-IEIP_ts_guess_scan_12-6_orca E -1288.399870728548
  Ir      0.619156     -0.727302      0.406268
  C       0.147980     -2.846206      0.334124
  C      -0.067055     -2.393343      1.684125
  C       2.160855     -2.063367      1.154735
  C       1.512461     -2.659491      0.019580
  C       1.176877     -1.932737      2.173975
  N      -1.070332      0.123532     -0.513701
  C      -2.339004      0.322326      0.201995
  C      -3.138921      1.521351     -0.286788
  H      -3.967857      1.693551      0.397839
  H      -3.577349      1.364971     -1.273356
  H      -2.538341      2.431001     -0.308782
  C      -3.160747     -0.960478      0.134020
  H      -2.053161      0.503656      1.239245
  H      -4.064986     -0.854127      0.731922
  H      -3.462326     -1.179397     -0.891092
  H      -2.612614     -1.819245      0.517836
  C      -0.920687      0.481674     -1.735842
  C       0.396926      0.300374     -2.265215
  H      -1.726995      0.920528     -2.314328
  C       1.426326      0.056146     -1.350117
  C       2.643203     -0.195939     -2.062495
  S       0.893065      0.246203     -3.883704
  C       2.500171     -0.120840     -3.413412
  H       1.619083      1.131021     -0.660010
  H       3.597488     -0.363319     -1.584141
  H       3.263961     -0.240153     -4.166773
  H      -0.593451     -3.284823     -0.317624
  H      -0.988651     -2.444161      2.243404
  H       1.339714     -1.485067      3.144249
  O       1.725905      2.318068      0.101379
  O       0.574881      1.026219      1.501467
  C       1.132739      2.123508      1.177846
  C       1.081283      3.231252      2.189590
  H       0.973478      4.194810      1.696978
  H       2.024967      3.252716      2.737353
  H       0.277102      3.084333      2.905101
  H       3.211513     -1.838138      1.252547
  H       1.982713     -2.919916     -0.917458
39
Coordinates from ORCA-job reaction4-IEIP_ts_guess_scan_12-6_orca E -1288.399874727097
  Ir      0.619189     -0.727362      0.406774
  C       0.151588     -2.846714      0.330702
  C      -0.068467     -2.396485      1.680868
  C       2.160422     -2.061505      1.159142
  C       1.516922     -2.657668      0.021389
  C       1.172707     -1.934272      2.175486
  N      -1.070636      0.122550     -0.513050
  C      -2.338993      0.321966      0.203115
  C      -3.137090      1.522962     -0.283761
  H      -3.965601      1.695599      0.401282
  H      -3.576042      1.368781     -1.270444
  H      -2.534883      2.431552     -0.304692
  C      -3.162377     -0.959704      0.133527
  H      -2.052852      0.501298      1.240614
  H      -4.065431     -0.853736      0.733278
  H      -3.465961     -1.175976     -0.891557
  H      -2.614380     -1.819916      0.514353
  C      -0.921838      0.479174     -1.735783
  C       0.395612      0.298114     -2.265571
  H      -1.728848      0.916525     -2.314446
  C       1.425351      0.055061     -1.350531
  C       2.642454     -0.196009     -2.062922
  S       0.891748      0.244264     -3.884041
  C       2.499277     -0.121239     -3.413834
  H       1.618098      1.130778     -0.661269
  H       3.596903     -0.362431     -1.584545
  H       3.263073     -0.239821     -4.167302
  H      -0.586854     -3.285957     -0.324000
  H      -0.992048     -2.449033      2.236700
  H       1.331353     -1.487409      3.146821
  O       1.723902      2.318693      0.098907
  O       0.576153      1.026507      1.501449
  C       1.132808      2.123898      1.176611
  C       1.082619      3.232227      2.187808
  H       0.972092      4.195256      1.694764
  H       2.027768      3.255417      2.732946
  H       0.280567      3.084721      2.905590
  H       3.210458     -1.835157      1.260937
  H       1.990605     -2.915758     -0.914576
39
Coordinates from ORCA-job reaction4-IEIP_ts_guess_scan_12-6_orca E -1288.399877424064
  Ir      0.619240     -0.727677      0.407229
  C       0.153015     -2.846988      0.328834
  C      -0.068804     -2.398381      1.679296
  C       2.160401     -2.061319      1.160502
  C       1.518663     -2.656992      0.021530
  C       1.171394     -1.935787      2.175862
  N      -1.070644      0.121823     -0.512663
  C      -2.338672      0.322159      0.203922
  C      -3.135568      1.524163     -0.282445
  H      -3.963658      1.697619      0.402920
  H      -3.575045      1.370769     -1.269014
  H      -2.532306      2.432050     -0.303391
  C      -3.163253     -0.958724      0.134196
  H      -2.052189      0.500909      1.241403
  H      -4.065507     -0.852405      0.735090
  H      -3.468215     -1.174032     -0.890677
  H      -2.615488     -1.819653      0.513757
  C      -0.922307      0.477257     -1.735871
  C       0.395142      0.296004     -2.265664
  H      -1.729671      0.913515     -2.314855
  C       1.425063      0.054038     -1.350547
  C       2.642567     -0.195657     -2.062633
  S       0.891809      0.242949     -3.884040
  C       2.499571     -0.120947     -3.413596
  H       1.617305      1.130214     -0.661709
  H       3.597035     -0.361339     -1.584034
  H       3.263568     -0.238626     -4.167000
  H      -0.584379     -3.286025     -0.327183
  H      -0.993197     -2.451528      2.233723
  H       1.328559     -1.489652      3.147769
  O       1.722008      2.318872      0.097457
  O       0.576511      1.026406      1.501583
  C       1.132061      2.124086      1.175832
  C       1.081989      3.232826      2.186550
  H       0.969913      4.195454      1.693069
  H       2.027770      3.257170      2.730532
  H       0.280944      3.084962      2.905379
  H       3.210228     -1.834718      1.263879
  H       1.993517     -2.913605     -0.914251
