39
Generated by autodE on: 2023-08-13. E = -1288.400571 Ha
Ir    0.61508  -0.70971   0.42963
C     0.07035  -2.80544   0.35291
C     0.09602  -2.34357   1.71566
C     2.21599  -2.11132   0.83519
C     1.35724  -2.64699  -0.19592
C     1.44320  -1.95644   2.00349
N    -1.04612   0.15636  -0.52809
C    -2.31205   0.45273   0.16013
C    -3.10990   1.57238  -0.48957
H    -3.93345   1.84596   0.16857
H    -3.55751   1.27901  -1.44035
H    -2.50646   2.46719  -0.64430
C    -3.13333  -0.82525   0.28588
H    -2.01517   0.77502   1.15921
H    -4.04109  -0.62242   0.85224
H    -3.42884  -1.20438  -0.69323
H    -2.59055  -1.60927   0.81169
C    -0.87253   0.38924  -1.77310
C     0.46794   0.17878  -2.26056
H    -1.66659   0.75981  -2.41426
C     1.54800   0.33788  -1.39307
C     2.76188  -0.03112  -2.04633
S     0.92119  -0.38859  -3.79538
C     2.57393  -0.43801  -3.32964
H     1.52454   1.27400  -0.65258
H     3.73864   0.05668  -1.59325
H     3.32102  -0.74286  -4.04674
H    -0.79521  -3.18444  -0.17128
H    -0.72070  -2.37095   2.42139
H     1.78978  -1.54121   2.93905
O     1.37158   2.45372   0.21342
O     0.53557   0.94523   1.62485
C     0.93686   2.12992   1.31891
C     0.87528   3.12740   2.44152
H     0.85392   4.14267   2.05511
H     1.77014   3.02298   3.05813
H     0.01651   2.95467   3.08669
H     3.26880  -1.89323   0.73808
H     1.65540  -2.89721  -1.20337
