39
Generated by autodE on: 2023-08-15. E = -1288.396163 Ha
Ir    0.62431  -0.73621   0.38181
C     0.18753  -2.86065   0.30767
C    -0.09012  -2.43862   1.65830
C     2.14578  -2.04487   1.22074
C     1.56570  -2.65440   0.06129
C     1.11089  -1.95331   2.20311
N    -1.08047   0.11101  -0.50879
C    -2.34193   0.29717   0.22162
C    -3.12814   1.52487  -0.21499
H    -3.95366   1.67879   0.47808
H    -3.56986   1.41655  -1.20652
H    -2.51544   2.42655  -0.20024
C    -3.17793  -0.97327   0.10909
H    -2.04822   0.43493   1.26335
H    -4.07115  -0.88652   0.72644
H    -3.49817  -1.14241  -0.91976
H    -2.63065  -1.85352   0.44252
C    -0.94097   0.48780  -1.72747
C     0.37403   0.30192  -2.25750
H    -1.74783   0.94051  -2.29379
C     1.37540  -0.01835  -1.32715
C     2.60906  -0.23657  -2.03167
S     0.91202   0.35923  -3.86068
C     2.50145  -0.06222  -3.37618
H     1.60091   1.14592  -0.74608
H     3.54931  -0.45188  -1.54448
H     3.28361  -0.13737  -4.11630
H    -0.51207  -3.31958  -0.37541
H    -1.03725  -2.50578   2.17112
H     1.22042  -1.51109   3.18314
O     1.69995   2.34240   0.00146
O     0.62039   1.04020   1.45069
C     1.14841   2.14028   1.10254
C     1.12319   3.25401   2.10865
H     1.02614   4.21794   1.61509
H     2.07060   3.26009   2.65056
H     0.32278   3.11999   2.83099
H     3.18777  -1.80969   1.37281
H     2.08359  -2.90465  -0.85329
