! Opt PBEh-3c
%geom Constraints
{ B 0 20 2.4714285714285715 C }
{ B 24 30 1.342857142857143 C }
    end
end
%output 
xyzfile=True 
end 
%scf 
maxiter 250 
end
%output
Print[P_Hirshfeld] = 1
end
% maxcore
4000
*xyz 1 1
Ir   0.57871503  -0.73490453   0.50216244 
C    0.02951039  -2.81584142   0.37739604 
C    0.06238256  -2.36520652   1.74674581 
C    2.18119406  -2.14446521   0.86870165 
C    1.31446761  -2.65275714  -0.17089008 
C    1.41935936  -2.00470047   2.04253639 
N   -1.03979439   0.14339918  -0.50538010 
C   -2.32162185   0.44782431   0.15282898 
C   -3.11019640   1.55251621  -0.53311679 
H   -3.94354568   1.83998630   0.10656563 
H   -3.54375406   1.23899078  -1.48394851 
H   -2.50503382   2.44418058  -0.69886430 
C   -3.14354832  -0.82829210   0.28920414 
H   -2.04681369   0.79246327   1.15108760 
H   -4.06529309  -0.61470740   0.82839279 
H   -3.41482103  -1.23090839  -0.68762332 
H   -2.61359731  -1.59907013   0.84696247 
C   -0.84533462   0.35787216  -1.75102019 
C    0.49809010   0.17292371  -2.24420521 
H   -1.64226629   0.70221619  -2.40428958 
C    1.60537109   0.46090567  -1.45682912 
C    2.80266973   0.09857670  -2.13511653 
S    0.91228047  -0.46635638  -3.77352576 
C    2.58064184  -0.40329013  -3.38099183 
H    1.54403356   1.36121892  -0.61941479 
H    3.79342104   0.25786407  -1.73480842 
H    3.31288582  -0.72141733  -4.10774696 
H   -0.84090554  -3.17999910  -0.14921270 
H   -0.75249653  -2.39925171   2.45484163 
H    1.77290285  -1.61160553   2.98497085 
O    1.39612805   2.40527841   0.23492734 
O    0.53783700   0.93191344   1.67256624 
C    0.95630613   2.10353146   1.34832348 
C    0.91416411   3.12303803   2.44963681 
H    0.86184507   4.12911935   2.04231960 
H    1.83323597   3.04963545   3.03450882 
H    0.08198217   2.94913045   3.12796790 
H    3.23145129  -1.91734281   0.76212712 
H    1.60751735  -2.87327833  -1.18704942 
*
