39
Generated by autodE on: 2023-08-16. E = -1288.402857 Ha
Ir    0.60999  -0.74895   0.38320
C     0.19371  -2.86763   0.32620
C    -0.14373  -2.44949   1.66609
C     2.10161  -2.02790   1.31848
C     1.58414  -2.65496   0.14370
C     1.02077  -1.94580   2.25822
N    -1.09677   0.09293  -0.50421
C    -2.36732   0.24055   0.21987
C    -3.15392   1.48394  -0.16898
H    -3.98754   1.60367   0.52117
H    -3.58443   1.41990  -1.16925
H    -2.54430   2.38563  -0.10690
C    -3.19770  -1.02584   0.04281
H    -2.08682   0.33411   1.27027
H    -4.09440  -0.97359   0.65911
H    -3.51220  -1.14581  -0.99469
H    -2.64794  -1.91973   0.33361
C    -0.95338   0.50819  -1.71050
C     0.35996   0.34270  -2.24715
H    -1.76257   0.97283  -2.26394
C     1.34835  -0.06565  -1.34536
C     2.58269  -0.24422  -2.05113
S     0.91301   0.52420  -3.84243
C     2.48727   0.04322  -3.38092
H     1.66236   1.21315  -0.76470
H     3.51484  -0.52301  -1.58090
H     3.27541   0.01227  -4.11793
H    -0.46773  -3.34648  -0.38074
H    -1.11361  -2.51977   2.13403
H     1.08259  -1.49894   3.24015
O     1.79963   2.31955  -0.04211
O     0.64583   1.07212   1.40053
C     1.21875   2.14000   1.06113
C     1.23784   3.27144   2.04357
H     1.13066   4.22720   1.53579
H     2.20415   3.28158   2.55101
H     0.46082   3.15597   2.79357
H     3.13362  -1.78135   1.51436
H     2.14571  -2.90685  -0.74429
