! Opt PBEh-3c
%geom Constraints
{ B 0 20 2.2142857142857144 C }
{ B 24 30 1.3714285714285714 C }
    end
end
%output 
xyzfile=True 
end 
%scf 
maxiter 250 
end
%output
Print[P_Hirshfeld] = 1
end
% maxcore
4000
*xyz 1 1
Ir   0.60818032  -0.72302532   0.45414942 
C    0.11040839  -2.82938881   0.35263083 
C   -0.02828606  -2.36382523   1.70804943 
C    2.17702003  -2.08745459   1.07193021 
C    1.45277294  -2.65323367  -0.03905213 
C    1.26188439  -1.94029287   2.13986788 
N   -1.05563509   0.12602726  -0.51062463 
C   -2.33141672   0.36131895   0.18470597 
C   -3.12124918   1.53925678  -0.36759210 
H   -3.95141185   1.75244023   0.30424470 
H   -3.55837599   1.33559574  -1.34604046 
H   -2.51464582   2.44263440  -0.43424391 
C   -3.15850864  -0.91940869   0.17311275 
H   -2.05311456   0.59051261   1.21430181 
H   -4.06820835  -0.77774892   0.75511475 
H   -3.45126176  -1.18969632  -0.84229181 
H   -2.61929019  -1.75921865   0.60840220 
C   -0.89644568   0.41983501  -1.74730710 
C    0.42808174   0.24779340  -2.27378915 
H   -1.70762374   0.80972192  -2.35473097 
C    1.50761125   0.20444060  -1.39666792 
C    2.70764230  -0.08425606  -2.11000400 
S    0.86547684  -0.03046920  -3.89227298 
C    2.50885341  -0.22828348  -3.44961051 
H    1.60140290   1.18235616  -0.59820761 
H    3.68647257  -0.12422979  -1.65472335 
H    3.24853798  -0.41909856  -4.21226825 
H   -0.67734203  -3.23803600  -0.26353659 
H   -0.91814632  -2.40589364   2.31782646 
H    1.48733375  -1.50635502   3.10384622 
O    1.65239621   2.32629884   0.18217621 
O    0.53940060   0.99759754   1.57853387 
C    1.07728371   2.11207323   1.26046161 
C    1.01702542   3.19622637   2.29651340 
H    0.98560007   4.17613500   1.82692745 
H    1.92282507   3.15300377   2.90407197 
H    0.16546524   3.07038216   2.96020996 
H    3.23225332  -1.86366252   1.10233271 
H    1.86640368  -2.90088270  -1.00570626 
*
