39
Coordinates from ORCA-job reaction4-IEIP_ts_guess_scan_0-2_orca E -1288.396896788136
  Ir      0.578943     -0.731031      0.473674
  C       0.028327     -2.811014      0.332308
  C       0.118647     -2.371042      1.705227
  C       2.196280     -2.142886      0.745179
  C       1.288521     -2.640620     -0.264653
  C       1.489236     -2.019750      1.952637
  N      -1.038718      0.180975     -0.511088
  C      -2.309258      0.527741      0.144733
  C      -3.127202      1.555914     -0.619077
  H      -3.960204      1.875819      0.005284
  H      -3.562298      1.156285     -1.536606
  H      -2.545372      2.445640     -0.862039
  C      -3.108659     -0.741729      0.410983
  H      -2.015751      0.961340      1.102292
  H      -4.021826     -0.491238      0.948619
  H      -3.395122     -1.232701     -0.520064
  H      -2.558413     -1.452917      1.025600
  C      -0.822264      0.382001     -1.751689
  C       0.531580      0.142126     -2.212405
  H      -1.592149      0.747913     -2.425234
  C       1.646757      0.573783     -1.505526
  C       2.842510      0.135441     -2.143223
  S       0.937569     -0.724699     -3.630237
  C       2.612519     -0.565934     -3.284707
  H       1.555073      1.419899     -0.720667
  H       3.833891      0.379284     -1.790196
  H       3.339946     -0.984414     -3.963767
  H      -0.864570     -3.168481     -0.160087
  H      -0.666477     -2.410676      2.446299
  H       1.882173     -1.638024      2.884017
  O       1.245634      2.455417      0.277859
  O       0.543656      0.881649      1.695170
  C       0.877567      2.096754      1.389499
  C       0.811596      3.060078      2.542460
  H       0.742997      4.082912      2.182102
  H       1.726006      2.974455      3.132714
  H      -0.021849      2.842405      3.207281
  H       3.238718     -1.904876      0.592805
  H       1.541358     -2.846608     -1.294738
39
Coordinates from ORCA-job reaction4-IEIP_ts_guess_scan_0-2_orca E -1288.396896109628
  Ir      0.577224     -0.731722      0.475233
  C       0.024559     -2.811531      0.338681
  C       0.115713     -2.368677      1.710632
  C       2.193285     -2.144558      0.749353
  C       1.284760     -2.643624     -0.259122
  C       1.486706     -2.018142      1.956799
  N      -1.039359      0.178887     -0.511767
  C      -2.310991      0.524167      0.142831
  C      -3.129263      1.551730     -0.621476
  H      -3.963238      1.870568      0.002138
  H      -3.563012      1.151923     -1.539559
  H      -2.548146      2.442147     -0.863617
  C      -3.109437     -0.746148      0.407904
  H      -2.018994      0.957772      1.100852
  H      -4.023455     -0.496724      0.944603
  H      -3.394376     -1.237166     -0.523582
  H      -2.559146     -1.456938      1.022938
  C      -0.822003      0.381186     -1.752215
  C       0.531989      0.143051     -2.214062
  H      -1.591935      0.747872     -2.425287
  C       1.647587      0.569645     -1.504859
  C       2.842893      0.137118     -2.147527
  S       0.937044     -0.711936     -3.639471
  C       2.612243     -0.554209     -3.294986
  H       1.555515      1.410096     -0.709145
  H       3.834536      0.378047     -1.793221
  H       3.339198     -0.966429     -3.978395
  H      -0.868848     -3.169188     -0.152656
  H      -0.669185     -2.406040      2.452054
  H       1.880333     -1.634852      2.887243
  O       1.261865      2.458073      0.281116
  O       0.544181      0.886013      1.693876
  C       0.885738      2.099594      1.390300
  C       0.817917      3.062578      2.543188
  H       0.756188      4.085923      2.183038
  H       1.728583      2.972242      3.138503
  H      -0.020276      2.848408      3.203117
  H       3.235897     -1.907875      0.596123
  H       1.537080     -2.852093     -1.288839
39
Coordinates from ORCA-job reaction4-IEIP_ts_guess_scan_0-2_orca E -1288.396874069307
  Ir      0.576479     -0.728104      0.473321
  C       0.027842     -2.808652      0.333133
  C       0.117942     -2.368118      1.705890
  C       2.195237     -2.138293      0.745243
  C       1.287831     -2.637210     -0.264304
  C       1.488228     -2.015364      1.952831
  N      -1.041342      0.180120     -0.512975
  C      -2.313097      0.525206      0.141671
  C      -3.133206      1.550215     -0.624140
  H      -3.967155      1.869261     -0.000592
  H      -3.567089      1.148013     -1.541100
  H      -2.553425      2.440890     -0.868524
  C      -3.110025     -0.745397      0.409913
  H      -2.021095      0.961173      1.098639
  H      -4.024103     -0.495832      0.946456
  H      -3.394804     -1.238785     -0.520366
  H      -2.558688     -1.454203      1.026278
  C      -0.824614      0.378927     -1.754157
  C       0.529393      0.139951     -2.214911
  H      -1.595177      0.741909     -2.428507
  C       1.644155      0.572935     -1.508437
  C       2.839725      0.133698     -2.146042
  S       0.935335     -0.724542     -3.634420
  C       2.610036     -0.567128     -3.287957
  H       1.551650      1.426286     -0.721005
  H       3.831184      0.377229     -1.792976
  H       3.337553     -0.985402     -3.967084
  H      -0.864828     -3.167072     -0.158985
  H      -0.666964     -2.408406      2.447143
  H       1.881028     -1.633063      2.884027
  O       1.285139      2.458628      0.293067
  O       0.540233      0.888826      1.694270
  C       0.893310      2.100450      1.397125
  C       0.819664      3.061703      2.550873
  H       0.769480      4.086178      2.192145
  H       1.722895      2.963456      3.156177
  H      -0.027444      2.852306      3.200836
  H       3.237406     -1.899315      0.592565
  H       1.540678     -2.843284     -1.294379
39
Coordinates from ORCA-job reaction4-IEIP_ts_guess_scan_0-2_orca E -1288.396806305023
  Ir      0.579708     -0.731797      0.473045
  C       0.026685     -2.810511      0.327857
  C       0.120051     -2.374341      1.701745
  C       2.196174     -2.145761      0.738010
  C       1.285974     -2.639614     -0.271514
  C       1.491506     -2.025048      1.947231
  N      -1.036052      0.183297     -0.508574
  C      -2.307514      0.528035      0.146974
  C      -3.125429      1.557902     -0.614708
  H      -3.958976      1.875845      0.009935
  H      -3.559759      1.160475     -1.533525
  H      -2.543963      2.448559     -0.855123
  C      -3.107301     -0.741957      0.409548
  H      -2.015034      0.959439      1.105900
  H      -4.021240     -0.492636      0.946444
  H      -3.392462     -1.230993     -0.522914
  H      -2.557945     -1.454387      1.023462
  C      -0.817577      0.386400     -1.748763
  C       0.536235      0.145343     -2.208113
  H      -1.586992      0.751518     -2.423270
  C       1.651331      0.577312     -1.501255
  C       2.845859      0.127412     -2.133150
  S       0.941219     -0.725987     -3.623815
  C       2.615495     -0.578352     -3.271893
  H       1.563679      1.441963     -0.721292
  H       3.837778      0.367699     -1.779105
  H       3.342634     -1.004125     -3.946737
  H      -0.867597     -3.165547     -0.163785
  H      -0.663607     -2.415371      2.444269
  H       1.886763     -1.646394      2.878871
  O       1.187236      2.469614      0.262236
  O       0.549163      0.882421      1.695306
  C       0.857267      2.102085      1.383570
  C       0.810822      3.062570      2.539260
  H       0.717007      4.084920      2.183255
  H       1.743036      2.989078      3.102694
  H       0.000154      2.831355      3.227182
  H       3.238527     -1.908319      0.584191
  H       1.536516     -2.842914     -1.302709
39
Coordinates from ORCA-job reaction4-IEIP_ts_guess_scan_0-2_orca E -1288.396898673876
  Ir      0.578209     -0.732369      0.476316
  C       0.025633     -2.811694      0.337474
  C       0.116265     -2.370605      1.709941
  C       2.194231     -2.145324      0.749793
  C       1.286086     -2.642998     -0.259697
  C       1.487163     -2.020242      1.957035
  N      -1.038340      0.179400     -0.511045
  C      -2.309488      0.525902      0.143706
  C      -3.126921      1.553917     -0.620881
  H      -3.960501      1.873758      0.002741
  H      -3.561150      1.154145     -1.538755
  H      -2.545046      2.443713     -0.863472
  C      -3.109165     -0.743514      0.409408
  H      -2.016840      0.959676      1.101470
  H      -4.022987     -0.492872      0.945858
  H      -3.394510     -1.234783     -0.521828
  H      -2.559693     -1.454490      1.024947
  C      -0.821307      0.381065     -1.751599
  C       0.532464      0.142970     -2.213238
  H      -1.591459      0.747240     -2.424727
  C       1.647933      0.569451     -1.503823
  C       2.843215      0.137500     -2.146778
  S       0.937389     -0.716355     -3.636098
  C       2.612618     -0.554790     -3.293670
  H       1.556692      1.412255     -0.712370
  H       3.834858      0.380045     -1.793528
  H       3.339651     -0.966427     -3.977317
  H      -0.867595     -3.168669     -0.154685
  H      -0.668916     -2.408943      2.451013
  H       1.880434     -1.638046      2.888078
  O       1.246947      2.456847      0.276562
  O       0.544195      0.882864      1.693906
  C       0.879105      2.097317      1.388352
  C       0.815175      3.060662      2.541286
  H       0.747396      4.083641      2.181217
  H       1.729952      2.973867      3.130814
  H      -0.018001      2.843652      3.206653
  H       3.236890     -1.908408      0.597256
  H       1.538792     -2.850166     -1.289578
39
Coordinates from ORCA-job reaction4-IEIP_ts_guess_scan_0-2_orca E -1288.396901076519
  Ir      0.577103     -0.729876      0.474536
  C       0.026269     -2.809692      0.335180
  C       0.117289     -2.369071      1.707801
  C       2.194516     -2.141586      0.746466
  C       1.286240     -2.639658     -0.262715
  C       1.488017     -2.017620      1.954219
  N      -1.040023      0.179751     -0.512179
  C      -2.311785      0.524433      0.142565
  C      -3.131148      1.550976     -0.622000
  H      -3.965124      1.869518      0.001762
  H      -3.564941      1.150328     -1.539689
  H      -2.550858      2.441723     -0.864911
  C      -3.109413     -0.746173      0.408680
  H      -2.019839      0.958878      1.100236
  H      -4.023645     -0.496882      0.945078
  H      -3.393965     -1.238175     -0.522409
  H      -2.558766     -1.456080      1.024411
  C      -0.823087      0.380925     -1.752947
  C       0.530817      0.143605     -2.214608
  H      -1.593686      0.745554     -2.426367
  C       1.645946      0.572046     -1.506012
  C       2.841276      0.133705     -2.144571
  S       0.936368     -0.712870     -3.639048
  C       2.611069     -0.562902     -3.288951
  H       1.554786      1.419856     -0.715412
  H       3.832939      0.373038     -1.789201
  H       3.338328     -0.980816     -3.968562
  H      -0.866949     -3.167195     -0.156617
  H      -0.667412     -2.408476      2.449319
  H       1.881539     -1.635594      2.885224
  O       1.266953      2.460127      0.284633
  O       0.542722      0.887728      1.693508
  C       0.887315      2.100672      1.392583
  C       0.818767      3.062779      2.546078
  H       0.759913      4.086607      2.186867
  H       1.727845      2.969952      3.143444
  H      -0.021410      2.849518      3.203785
  H       3.236880     -1.903687      0.593401
  H       1.538525     -2.846175     -1.292838
39
Coordinates from ORCA-job reaction4-IEIP_ts_guess_scan_0-2_orca E -1288.396907595645
  Ir      0.577247     -0.730625      0.475443
  C       0.025913     -2.810137      0.335014
  C       0.116691     -2.370236      1.707865
  C       2.194232     -2.142826      0.747183
  C       1.286083     -2.640110     -0.262501
  C       1.487447     -2.019242      1.954805
  N      -1.039154      0.179879     -0.511489
  C      -2.310816      0.525340      0.143055
  C      -3.129584      1.552153     -0.621787
  H      -3.963418      1.871284      0.001864
  H      -3.563546      1.151540     -1.539409
  H      -2.548814      2.442540     -0.864868
  C      -3.109203     -0.744745      0.409410
  H      -2.018697      0.959869      1.100644
  H      -4.023389     -0.494781      0.945573
  H      -3.393872     -1.236865     -0.521580
  H      -2.559077     -1.454773      1.025456
  C      -0.822003      0.380379     -1.752320
  C       0.531788      0.142127     -2.213518
  H      -1.592503      0.744460     -2.426162
  C       1.646942      0.570773     -1.504990
  C       2.842221      0.134681     -2.145151
  S       0.937034     -0.719906     -3.634717
  C       2.611992     -0.560647     -3.290320
  H       1.555984      1.420474     -0.716111
  H       3.833853      0.377090     -1.791784
  H       3.339238     -0.975160     -3.972020
  H      -0.867277     -3.167128     -0.157204
  H      -0.668214     -2.409817      2.449159
  H       1.880837     -1.637793      2.886100
  O       1.257288      2.459711      0.281822
  O       0.542807      0.886259      1.694200
  C       0.883148      2.099858      1.391539
  C       0.817622      3.062198      2.545026
  H       0.754923      4.085779      2.185766
  H       1.729540      2.971552      3.138388
  H      -0.019154      2.847292      3.206523
  H       3.236692     -1.905106      0.594507
  H       1.538569     -2.846151     -1.292671
39
Coordinates from ORCA-job reaction4-IEIP_ts_guess_scan_0-2_orca E -1288.396908703166
  Ir      0.577635     -0.730988      0.475877
  C       0.026222     -2.810421      0.335515
  C       0.116976     -2.370533      1.708353
  C       2.194563     -2.143234      0.747784
  C       1.286418     -2.640453     -0.261934
  C       1.487741     -2.019579      1.955352
  N      -1.038901      0.179777     -0.511316
  C      -2.310396      0.525390      0.143389
  C      -3.128778      1.552679     -0.621207
  H      -3.962506      1.871945      0.002513
  H      -3.562856      1.152455     -1.538949
  H      -2.547678      2.442916     -0.864047
  C      -3.109176     -0.744535      0.409340
  H      -2.018098      0.959554      1.101086
  H      -4.023309     -0.494426      0.945517
  H      -3.393956     -1.236312     -0.521801
  H      -2.559323     -1.454905      1.025233
  C      -0.821905      0.381017     -1.752038
  C       0.531810      0.143333     -2.213733
  H      -1.592477      0.745825     -2.425416
  C       1.647192      0.570430     -1.504618
  C       2.842337      0.134565     -2.145146
  S       0.936811     -0.715201     -3.637089
  C       2.611779     -0.560002     -3.290706
  H       1.556757      1.417456     -0.714375
  H       3.834081      0.375264     -1.790922
  H       3.338853     -0.975056     -3.972254
  H      -0.866967     -3.167362     -0.156745
  H      -0.667960     -2.410082      2.449616
  H       1.881116     -1.638148      2.886661
  O       1.254023      2.458924      0.280009
  O       0.542969      0.885383      1.693930
  C       0.881781      2.099157      1.390382
  C       0.816485      3.061984      2.543539
  H       0.752158      4.085318      2.183865
  H       1.729216      2.972695      3.135859
  H      -0.019245      2.846435      3.206160
  H       3.237039     -1.905559      0.595149
  H       1.538935     -2.846514     -1.292092
39
Coordinates from ORCA-job reaction4-IEIP_ts_guess_scan_0-2_orca E -1288.396909006501
  Ir      0.577368     -0.730734      0.475847
  C       0.026002     -2.810181      0.335406
  C       0.116822     -2.370373      1.708269
  C       2.194347     -2.142968      0.747585
  C       1.286155     -2.640147     -0.262115
  C       1.487592     -2.019398      1.955209
  N      -1.039078      0.179761     -0.511464
  C      -2.310710      0.525145      0.143147
  C      -3.129383      1.552142     -0.621547
  H      -3.963184      1.871253      0.002155
  H      -3.563378      1.151708     -1.539235
  H      -2.548532      2.442511     -0.864498
  C      -3.109167     -0.744951      0.409233
  H      -2.018566      0.959492      1.100806
  H      -4.023404     -0.495016      0.945317
  H      -3.393756     -1.236937     -0.521856
  H      -2.559160     -1.455089      1.025262
  C      -0.822085      0.380715     -1.752256
  C       0.531638      0.143138     -2.213895
  H      -1.592756      0.745064     -2.425761
  C       1.646909      0.570482     -1.504789
  C       2.842122      0.134434     -2.145053
  S       0.936798     -0.715768     -3.636987
  C       2.611722     -0.560103     -3.290675
  H       1.556400      1.418280     -0.714777
  H       3.833824      0.375291     -1.790820
  H       3.338889     -0.975059     -3.972188
  H      -0.867213     -3.167093     -0.156828
  H      -0.668065     -2.410013      2.449578
  H       1.881030     -1.638064      2.886531
  O       1.257360      2.459233      0.281262
  O       0.542680      0.886191      1.693991
  C       0.883141      2.099664      1.391046
  C       0.817335      3.062406      2.544218
  H       0.754563      4.085852      2.184592
  H       1.729185      2.972068      3.137733
  H      -0.019496      2.847643      3.205704
  H       3.236808     -1.905253      0.594897
  H       1.538613     -2.846134     -1.292303
