39
Generated by autodE on: 2023-08-14. E = -1288.391962 Ha
Ir    0.57000  -0.74739   0.53304
C     0.01740  -2.82536   0.40516
C     0.02556  -2.36945   1.77308
C     2.16238  -2.16027   0.93613
C     1.31340  -2.66761  -0.11844
C     1.37831  -2.01364   2.09407
N    -1.03220   0.12876  -0.49800
C    -2.32112   0.42239   0.15363
C    -3.10185   1.54195  -0.51782
H    -3.93829   1.82112   0.12153
H    -3.53054   1.24654  -1.47653
H    -2.49253   2.43401  -0.66480
C    -3.14828  -0.85349   0.25746
H    -2.05724   0.74818   1.16117
H    -4.07586  -0.64771   0.78977
H    -3.40928  -1.23739  -0.72968
H    -2.62708  -1.63634   0.80643
C    -0.83825   0.35043  -1.74395
C     0.49930   0.18760  -2.25385
H    -1.64360   0.68817  -2.39057
C     1.61581   0.44672  -1.47179
C     2.80367   0.12037  -2.18096
S     0.89499  -0.37146  -3.82200
C     2.56604  -0.32046  -3.44834
H     1.56659   1.35110  -0.59077
H     3.79996   0.26204  -1.78779
H     3.29058  -0.60022  -4.19827
H    -0.84335  -3.18935  -0.13713
H    -0.80289  -2.39874   2.46553
H     1.71486  -1.61899   3.04209
O     1.45311   2.37068   0.23078
O     0.54024   0.93961   1.67825
C     0.98541   2.09463   1.34338
C     0.94640   3.13827   2.42064
H     0.89048   4.13511   1.99145
H     1.86940   3.08023   3.00106
H     0.11788   2.97719   3.10624
H     3.21525  -1.93709   0.84904
H     1.62469  -2.89096  -1.12851
