39
Coordinates from ORCA-job reaction4-IEIP_ts_guess_scan_13-11_orca E -1288.402596642525
  Ir      0.616687     -0.732579      0.401558
  C       0.162040     -2.847806      0.320154
  C      -0.095673     -2.408643      1.668415
  C       2.144483     -2.052790      1.203107
  C       1.537470     -2.652640      0.050462
  C       1.125871     -1.937293      2.196377
  N      -1.078293      0.111950     -0.512359
  C      -2.348504      0.292786      0.206117
  C      -3.142685      1.509464     -0.247473
  H      -3.972655      1.664039      0.440130
  H      -3.578958      1.386685     -1.239702
  H      -2.537720      2.416442     -0.239855
  C      -3.174100     -0.984568      0.098761
  H      -2.065860      0.443314      1.249174
  H      -4.076399     -0.896523      0.702636
  H      -3.478939     -1.169232     -0.932117
  H      -2.626230     -1.856944      0.451331
  C      -0.933534      0.483422     -1.725713
  C       0.380768      0.306799     -2.247654
  H      -1.740902      0.925432     -2.300393
  C       1.396183      0.013141     -1.333248
  C       2.619075     -0.211333     -2.041294
  S       0.898644      0.334110     -3.862995
  C       2.493966     -0.065672     -3.389781
  H       1.621976      1.157511     -0.648194
  H       3.566077     -0.414520     -1.562232
  H       3.267758     -0.153426     -4.137368
  H      -0.553837     -3.293999     -0.354539
  H      -1.034769     -2.466411      2.196982
  H       1.254836     -1.492158      3.172843
  O       1.748315      2.293709      0.056333
  O       0.595201      1.043259      1.476492
  C       1.159842      2.123455      1.143956
  C       1.141374      3.251333      2.132000
  H       1.021984      4.205421      1.623658
  H       2.100604      3.280856      2.651731
  H       0.356977      3.120242      2.871826
  H       3.190446     -1.823186      1.334894
  H       2.037854     -2.904458     -0.873280
39
Coordinates from ORCA-job reaction4-IEIP_ts_guess_scan_13-11_orca E -1288.402838140613
  Ir      0.616125     -0.733059      0.399235
  C       0.161165     -2.850593      0.321901
  C      -0.093972     -2.412916      1.671065
  C       2.144109     -2.055098      1.202119
  C       1.536010     -2.655856      0.050551
  C       1.126766     -1.940490      2.196305
  N      -1.081295      0.110237     -0.510684
  C      -2.350921      0.292146      0.208715
  C      -3.143640      1.509683     -0.245074
  H      -3.973726      1.665122      0.442169
  H      -3.579544      1.387403     -1.237547
  H      -2.537766      2.416074     -0.237211
  C      -3.178134     -0.984144      0.101556
  H      -2.067982      0.442413      1.251765
  H      -4.080268     -0.895019      0.705515
  H      -3.483395     -1.168483     -0.929271
  H      -2.631341     -1.857193      0.454074
  C      -0.933393      0.482684     -1.729136
  C       0.384485      0.308423     -2.253401
  H      -1.740239      0.925696     -2.303715
  C       1.396228      0.009558     -1.336630
  C       2.621088     -0.213996     -2.042658
  S       0.907169      0.342895     -3.867320
  C       2.500184     -0.062890     -3.391002
  H       1.626391      1.164968     -0.652224
  H       3.566691     -0.419493     -1.561630
  H       3.276133     -0.149393     -4.136415
  H      -0.555446     -3.297649     -0.351467
  H      -1.031848     -2.471883      2.201550
  H       1.256905     -1.495750      3.172789
  O       1.751687      2.300661      0.053302
  O       0.593990      1.045243      1.475837
  C       1.160521      2.126615      1.142866
  C       1.139425      3.254134      2.130880
  H       1.020063      4.208273      1.622559
  H       2.097690      3.284301      2.652328
  H       0.353745      3.121994      2.869062
  H       3.190318     -1.826202      1.333306
  H       2.035392     -2.909225     -0.873324
39
Coordinates from ORCA-job reaction4-IEIP_ts_guess_scan_13-11_orca E -1288.402935143237
  Ir      0.615137     -0.733256      0.398398
  C       0.157380     -2.851667      0.327383
  C      -0.094810     -2.415026      1.677189
  C       2.141707     -2.057550      1.204030
  C       1.532026     -2.658976      0.054026
  C       1.125697     -1.942702      2.199319
  N      -1.082030      0.109307     -0.509167
  C      -2.351432      0.290635      0.209116
  C      -3.143910      1.507680     -0.246355
  H      -3.975554      1.663021      0.439068
  H      -3.577433      1.384792     -1.239786
  H      -2.538457      2.414326     -0.237610
  C      -3.177832     -0.986151      0.102160
  H      -2.068963      0.441428      1.252210
  H      -4.080438     -0.897321      0.705489
  H      -3.482242     -1.171255     -0.928751
  H      -2.630566     -1.858616      0.455575
  C      -0.932926      0.484085     -1.729138
  C       0.385427      0.311905     -2.257022
  H      -1.740548      0.927841     -2.301877
  C       1.394174      0.003674     -1.340366
  C       2.620627     -0.215856     -2.045370
  S       0.910554      0.355373     -3.870019
  C       2.503131     -0.051576     -3.392536
  H       1.631104      1.171022     -0.658551
  H       3.565081     -0.425536     -1.563833
  H       3.281130     -0.131766     -4.136495
  H      -0.560471     -3.298980     -0.344462
  H      -1.031731     -2.473542      2.209378
  H       1.257572     -1.497864      3.175526
  O       1.755485      2.304941      0.049984
  O       0.594473      1.046343      1.473186
  C       1.161838      2.127479      1.140287
  C       1.141156      3.254208      2.128380
  H       1.022681      4.208744      1.620577
  H       2.099130      3.283447      2.650474
  H       0.354832      3.121753      2.865733
  H       3.188361     -1.830387      1.334525
  H       2.030010     -2.914787     -0.869931
39
Coordinates from ORCA-job reaction4-IEIP_ts_guess_scan_13-11_orca E -1288.403000447900
  Ir      0.614224     -0.734055      0.398233
  C       0.153217     -2.852376      0.334544
  C      -0.096741     -2.416557      1.684831
  C       2.138798     -2.059967      1.208225
  C       1.528000     -2.662050      0.059596
  C       1.123630     -1.944511      2.204435
  N      -1.082223      0.108321     -0.509205
  C      -2.352436      0.287365      0.207657
  C      -3.146711      1.503515     -0.247304
  H      -3.979662      1.656685      0.437013
  H      -3.578505      1.380810     -1.241473
  H      -2.542889      2.411228     -0.236806
  C      -3.177003     -0.990547      0.099787
  H      -2.070945      0.437772      1.251126
  H      -4.080240     -0.903260      0.702412
  H      -3.480181     -1.175834     -0.931441
  H      -2.628614     -1.862158      0.453503
  C      -0.932074      0.487550     -1.728230
  C       0.385784      0.318446     -2.258826
  H      -1.740274      0.933553     -2.298227
  C       1.391633     -0.003119     -1.343787
  C       2.619418     -0.217421     -2.048204
  S       0.915787      0.385586     -3.869460
  C       2.504068     -0.040447     -3.394062
  H       1.637232      1.176728     -0.666636
  H       3.561975     -0.437165     -1.567481
  H       3.282882     -0.117682     -4.137495
  H      -0.565667     -3.299855     -0.336086
  H      -1.033185     -2.473844      2.217960
  H       1.256986     -1.499164      3.180218
  O       1.760654      2.307945      0.046372
  O       0.597019      1.048446      1.469408
  C       1.165279      2.128230      1.137000
  C       1.146297      3.255260      2.124343
  H       1.029375      4.209953      1.616483
  H       2.104186      3.283172      2.646697
  H       0.359537      3.123813      2.861410
  H       3.185879     -1.834728      1.338464
  H       2.024859     -2.920448     -0.864254
39
Coordinates from ORCA-job reaction4-IEIP_ts_guess_scan_13-11_orca E -1288.403057242884
  Ir      0.613122     -0.737554      0.398894
  C       0.146960     -2.854151      0.343618
  C      -0.101311     -2.418157      1.694076
  C       2.134168     -2.064764      1.214985
  C       1.522401     -2.667531      0.067675
  C       1.119374     -1.947175      2.211851
  N      -1.081638      0.107015     -0.509883
  C      -2.353089      0.283250      0.205797
  C      -3.149663      1.498721     -0.247103
  H      -3.983340      1.648817      0.436944
  H      -3.580671      1.377063     -1.241733
  H      -2.547671      2.407645     -0.234437
  C      -3.175934     -0.995661      0.096071
  H      -2.072697      0.432507      1.249814
  H      -4.079885     -0.910156      0.697854
  H      -3.477679     -1.180428     -0.935681
  H      -2.626651     -1.866703      0.449634
  C      -0.930911      0.491522     -1.726460
  C       0.385113      0.322794     -2.259308
  H      -1.739670      0.939737     -2.293912
  C       1.388480     -0.013533     -1.346924
  C       2.618225     -0.218247     -2.050598
  S       0.917936      0.406415     -3.868316
  C       2.507189     -0.015592     -3.393405
  H       1.642837      1.179685     -0.678361
  H       3.559183     -0.446685     -1.570933
  H       3.288822     -0.078352     -4.135285
  H      -0.572974     -3.301378     -0.326090
  H      -1.037885     -2.472558      2.227232
  H       1.254161     -1.500623      3.186883
  O       1.764415      2.308499      0.038761
  O       0.602582      1.049710      1.463890
  C       1.170220      2.127783      1.130636
  C       1.154745      3.256620      2.116103
  H       1.037987      4.210848      1.607391
  H       2.113687      3.284090      2.636566
  H       0.369309      3.126987      2.854956
  H       3.181786     -1.842132      1.345313
  H       2.018335     -2.929140     -0.855775
39
Coordinates from ORCA-job reaction4-IEIP_ts_guess_scan_13-11_orca E -1288.403090958395
  Ir      0.612351     -0.740309      0.399236
  C       0.144831     -2.855005      0.346492
  C      -0.104976     -2.418412      1.696591
  C       2.131358     -2.065954      1.219682
  C       1.521056     -2.669470      0.072130
  C       1.115280     -1.947358      2.215671
  N      -1.081139      0.105767     -0.510698
  C      -2.352878      0.280400      0.205341
  C      -3.150546      1.495681     -0.245899
  H      -3.983826      1.644142      0.438944
  H      -3.582244      1.374865     -1.240377
  H      -2.549332      2.405123     -0.232496
  C      -3.174867     -0.998929      0.094217
  H      -2.072657      0.428845      1.249540
  H      -4.079109     -0.914321      0.695649
  H      -3.476012     -1.183043     -0.937837
  H      -2.625329     -1.869980      0.447354
  C      -0.930685      0.494079     -1.724981
  C       0.384640      0.325829     -2.257455
  H      -1.739113      0.944994     -2.290913
  C       1.387555     -0.017539     -1.347169
  C       2.617734     -0.217656     -2.051058
  S       0.920150      0.425352     -3.864741
  C       2.507254     -0.006418     -3.392815
  H       1.645133      1.180045     -0.685112
  H       3.557712     -0.453015     -1.572896
  H       3.288954     -0.065832     -4.134920
  H      -0.574409     -3.302375     -0.323889
  H      -1.042612     -2.471278      2.228020
  H       1.249174     -1.499801      3.190343
  O       1.765222      2.307820      0.033892
  O       0.605787      1.049867      1.459686
  C       1.172488      2.127400      1.126108
  C       1.159251      3.257192      2.111031
  H       1.042100      4.211168      1.602005
  H       2.119073      3.284453      2.629886
  H       0.375093      3.128526      2.851444
  H       3.178904     -1.843679      1.351256
  H       2.018004     -2.931983     -0.850522
39
Coordinates from ORCA-job reaction4-IEIP_ts_guess_scan_13-11_orca E -1288.403110838794
  Ir      0.611889     -0.743248      0.399518
  C       0.144605     -2.856476      0.347138
  C      -0.108181     -2.418804      1.696567
  C       2.129292     -2.066409      1.224128
  C       1.521705     -2.671081      0.075754
  C       1.111004     -1.947111      2.218270
  N      -1.081302      0.104600     -0.510920
  C      -2.353035      0.278127      0.205964
  C      -3.150802      1.494151     -0.242954
  H      -3.983395      1.641384      0.443008
  H      -3.583536      1.375087     -1.237206
  H      -2.549623      2.403603     -0.228482
  C      -3.175094     -1.000916      0.092413
  H      -2.072663      0.424960      1.250331
  H      -4.079559     -0.916982      0.693614
  H      -3.475899     -1.183267     -0.940047
  H      -2.626074     -1.872767      0.444280
  C      -0.930920      0.495971     -1.723687
  C       0.384498      0.327229     -2.255143
  H      -1.738467      0.949180     -2.289023
  C       1.387656     -0.019421     -1.346198
  C       2.617836     -0.216676     -2.050684
  S       0.921064      0.434868     -3.861622
  C       2.507474     -0.000121     -3.391799
  H       1.645973      1.179672     -0.690885
  H       3.557483     -0.455563     -1.573653
  H       3.289126     -0.056648     -4.134183
  H      -0.573038     -3.304568     -0.324480
  H      -1.047244     -2.470823      2.225557
  H       1.242817     -1.498644      3.192779
  O       1.764630      2.307440      0.028368
  O       0.608977      1.049594      1.455988
  C       1.174424      2.127317      1.121412
  C       1.162686      3.257556      2.106194
  H       1.043961      4.211259      1.597039
  H       2.123607      3.285306      2.622960
  H       0.380261      3.128961      2.848466
  H       3.176501     -1.843625      1.357646
  H       2.020734     -2.933922     -0.845689
39
Coordinates from ORCA-job reaction4-IEIP_ts_guess_scan_13-11_orca E -1288.403121587894
  Ir      0.611676     -0.745183      0.399507
  C       0.145437     -2.857972      0.346777
  C      -0.110556     -2.419516      1.695550
  C       2.127783     -2.066252      1.227963
  C       1.523257     -2.672206      0.078684
  C       1.107069     -1.946908      2.219952
  N      -1.081665      0.103861     -0.510497
  C      -2.353189      0.276761      0.206970
  C      -3.150599      1.493673     -0.240139
  H      -3.982872      1.640162      0.446396
  H      -3.583743      1.376232     -1.234406
  H      -2.549177      2.402943     -0.224496
  C      -3.175512     -1.001888      0.091291
  H      -2.072536      0.422094      1.251453
  H      -4.080081     -0.918557      0.692439
  H      -3.476206     -1.182514     -0.941496
  H      -2.626946     -1.874565      0.441813
  C      -0.931273      0.497114     -1.722702
  C       0.384537      0.328155     -2.253779
  H      -1.738150      0.951849     -2.287725
  C       1.387874     -0.019913     -1.345419
  C       2.617847     -0.216089     -2.050689
  S       0.921067      0.439024     -3.860027
  C       2.507420      0.003245     -3.391421
  H       1.646322      1.180444     -0.695666
  H       3.557510     -0.456305     -1.574353
  H       3.288975     -0.051684     -4.134024
  H      -0.570314     -3.307199     -0.326092
  H      -1.050915     -2.471497      2.222250
  H       1.236423     -1.497923      3.194536
  O       1.763802      2.308305      0.023635
  O       0.611329      1.049408      1.453122
  C       1.175655      2.127626      1.117586
  C       1.164840      3.257456      2.102882
  H       1.044471      4.211212      1.594199
  H       2.126700      3.285614      2.617875
  H       0.383893      3.128118      2.846566
  H       3.174560     -1.842711      1.363652
  H       2.024655     -2.935222     -0.841426
39
Coordinates from ORCA-job reaction4-IEIP_ts_guess_scan_13-11_orca E -1288.403129815425
  Ir      0.611773     -0.746487      0.399361
  C       0.147439     -2.859586      0.345829
  C      -0.112599     -2.420685      1.693880
  C       2.126549     -2.065458      1.232370
  C       1.525985     -2.672928      0.081916
  C       1.102757     -1.946756      2.221594
  N      -1.082144      0.103471     -0.509708
  C      -2.353494      0.275741      0.208069
  C      -3.150303      1.493789     -0.237000
  H      -3.982595      1.639444      0.449706
  H      -3.583317      1.378361     -1.231551
  H      -2.548497      2.402769     -0.219581
  C      -3.176229     -1.002400      0.089864
  H      -2.072623      0.419162      1.252750
  H      -4.080807     -0.919964      0.691141
  H      -3.476975     -1.180804     -0.943288
  H      -2.628027     -1.876056      0.438508
  C      -0.931775      0.498018     -1.721723
  C       0.384399      0.329035     -2.253018
  H      -1.738212      0.953817     -2.286471
  C       1.387933     -0.019687     -1.344945
  C       2.617503     -0.215934     -2.051300
  S       0.920096      0.440686     -3.859356
  C       2.506701      0.004619     -3.391764
  H       1.646452      1.182484     -0.700498
  H       3.557402     -0.456448     -1.575546
  H       3.287992     -0.049718     -4.134682
  H      -0.565792     -3.310470     -0.328583
  H      -1.054418     -2.473297      2.217915
  H       1.228856     -1.497497      3.196471
  O       1.762881      2.310242      0.019135
  O       0.613703      1.049499      1.450556
  C       1.176862      2.128307      1.114142
  C       1.166876      3.257208      2.100422
  H       1.044785      4.211294      1.592738
  H       2.129678      3.285656      2.613643
  H       0.387395      3.126588      2.845396
  H       3.172736     -1.840869      1.370882
  H       2.030426     -2.935956     -0.836532
39
Coordinates from ORCA-job reaction4-IEIP_ts_guess_scan_13-11_orca E -1288.403133876770
  Ir      0.612084     -0.746718      0.399138
  C       0.150032     -2.860552      0.344400
  C      -0.113928     -2.421867      1.691882
  C       2.125822     -2.064032      1.236224
  C       1.529137     -2.672661      0.084512
  C       1.099104     -1.946613      2.222826
  N      -1.082437      0.103508     -0.508994
  C      -2.353706      0.275259      0.208852
  C      -3.149937      1.494324     -0.234433
  H      -3.982463      1.639234      0.452145
  H      -3.582520      1.380715     -1.229374
  H      -2.547741      2.403011     -0.215258
  C      -3.176821     -1.002452      0.088531
  H      -2.072748      0.416913      1.253755
  H      -4.081205     -0.921012      0.690236
  H      -3.477922     -1.178773     -0.944877
  H      -2.628651     -1.876927      0.435196
  C      -0.932307      0.498319     -1.721086
  C       0.383925      0.329469     -2.253053
  H      -1.738756      0.954370     -2.285615
  C       1.387697     -0.019038     -1.345044
  C       2.616794     -0.216349     -2.052351
  S       0.918393      0.439742     -3.859709
  C       2.505395      0.003609     -3.392752
  H       1.646181      1.184789     -0.703757
  H       3.556998     -0.456410     -1.576941
  H       3.286288     -0.051317     -4.136039
  H      -0.560703     -3.312999     -0.331575
  H      -1.057070     -2.475531      2.213436
  H       1.221966     -1.497388      3.198131
  O       1.762141      2.312197      0.016500
  O       0.615296      1.049829      1.449099
  C       1.177641      2.129020      1.112269
  C       1.168414      3.256996      2.099545
  H       1.045342      4.211546      1.592948
  H       2.131851      3.285359      2.611591
  H       0.389883      3.125306      2.845308
  H       3.171404     -1.838370      1.377515
  H       2.036492     -2.935315     -0.832440
39
Coordinates from ORCA-job reaction4-IEIP_ts_guess_scan_13-11_orca E -1288.403136026543
  Ir      0.612541     -0.746343      0.398938
  C       0.153541     -2.861074      0.342361
  C      -0.115021     -2.423270      1.689317
  C       2.125337     -2.061813      1.240499
  C       1.533219     -2.671402      0.087138
  C       1.095277     -1.946464      2.224150
  N      -1.082659      0.103659     -0.508368
  C      -2.353905      0.274858      0.209518
  C      -3.149355      1.495182     -0.231639
  H      -3.982172      1.639252      0.454750
  H      -3.581435      1.383768     -1.227044
  H      -2.546595      2.403445     -0.210399
  C      -3.177583     -1.002290      0.086789
  H      -2.072963      0.414373      1.254717
  H      -4.081537     -0.922074      0.689294
  H      -3.479417     -1.176045     -0.946846
  H      -2.629313     -1.877738      0.430863
  C      -0.933057      0.498116     -1.720636
  C       0.382962      0.329429     -2.253549
  H      -1.739861      0.953879     -2.284924
  C       1.387097     -0.018375     -1.345594
  C       2.615655     -0.217223     -2.053770
  S       0.915986      0.437266     -3.860657
  C       2.503454      0.001098     -3.394235
  H       1.645399      1.187011     -0.706251
  H       3.556193     -0.456542     -1.578622
  H       3.283817     -0.055050     -4.137983
  H      -0.554258     -3.315141     -0.335587
  H      -1.059696     -2.478388      2.207945
  H       1.214311     -1.497481      3.200039
  O       1.761419      2.313899      0.014808
  O       0.616567      1.050353      1.448316
  C       1.178298      2.129720      1.111254
  C       1.170103      3.256977      2.099352
  H       1.046637      4.212010      1.593755
  H       2.134038      3.284910      2.610497
  H       0.392261      3.124634      2.845716
  H       3.170179     -1.834815      1.385062
  H       2.043911     -2.933124     -0.828232
39
Coordinates from ORCA-job reaction4-IEIP_ts_guess_scan_13-11_orca E -1288.403137428471
  Ir      0.613023     -0.745672      0.398814
  C       0.157991     -2.861231      0.339603
  C      -0.116207     -2.424993      1.686037
  C       2.124870     -2.058786      1.245629
  C       1.538362     -2.669163      0.090066
  C       1.090806     -1.946351      2.225783
  N      -1.082854      0.103632     -0.507850
  C      -2.354047      0.274262      0.210244
  C      -3.148349      1.496310     -0.228120
  H      -3.981332      1.639458      0.458250
  H      -3.580119      1.387759     -1.223976
  H      -2.544697      2.403914     -0.204463
  C      -3.178636     -1.002045      0.084551
  H      -2.073130      0.411043      1.255808
  H      -4.081871     -0.923272      0.688310
  H      -3.481692     -1.172469     -0.949290
  H      -2.630267     -1.878803      0.425171
  C      -0.934123      0.497295     -1.720368
  C       0.381482      0.328740     -2.254330
  H      -1.741548      0.952386     -2.284361
  C       1.386115     -0.018104     -1.346534
  C       2.614142     -0.218408     -2.055418
  S       0.913117      0.434022     -3.861931
  C       2.501043     -0.002087     -3.396017
  H       1.643983      1.188639     -0.708296
  H       3.555002     -0.456964     -1.580507
  H       3.280814     -0.059553     -4.140283
  H      -0.546232     -3.316956     -0.340935
  H      -1.062806     -2.481880      2.200965
  H       1.205156     -1.497783      3.202419
  O       1.760621      2.315006      0.013478
  O       0.617620      1.051001      1.447990
  C       1.178902      2.130329      1.110622
  C       1.172171      3.257263      2.099146
  H       1.048885      4.212664      1.594219
  H       2.136515      3.284433      2.609572
  H       0.394837      3.124930      2.846052
  H       3.168778     -1.830101      1.394214
  H       2.053049     -2.929273     -0.823527
39
Coordinates from ORCA-job reaction4-IEIP_ts_guess_scan_13-11_orca E -1288.403138831203
  Ir      0.613513     -0.744936      0.398829
  C       0.163858     -2.861192      0.335859
  C      -0.117767     -2.427330      1.681679
  C       2.124251     -2.054749      1.252457
  C       1.545176     -2.665852      0.093842
  C       1.084970     -1.946355      2.228058
  N      -1.083123      0.103119     -0.507322
  C      -2.354163      0.273173      0.211288
  C      -3.146575      1.497844     -0.223076
  H      -3.979491      1.639966      0.463587
  H      -3.578347      1.393412     -1.219374
  H      -2.541408      2.404341     -0.196304
  C      -3.180343     -1.001723      0.081469
  H      -2.073218      0.406121      1.257319
  H      -4.082491     -0.924699      0.687065
  H      -3.485267     -1.167421     -0.952598
  H      -2.632094     -1.880462      0.417227
  C      -0.935709      0.495599     -1.720223
  C       0.379329      0.327115     -2.255317
  H      -1.744018      0.949652     -2.283840
  C       1.384665     -0.018598     -1.347888
  C       2.612209     -0.219810     -2.057341
  S       0.909713      0.430335     -3.863427
  C       2.498099     -0.005407     -3.398101
  H       1.641697      1.189349     -0.710302
  H       3.553408     -0.457619     -1.582723
  H       3.277239     -0.063875     -4.142949
  H      -0.535659     -3.318778     -0.348256
  H      -1.066976     -2.486400      2.191553
  H       1.193165     -1.498418      3.205674
  O       1.759622      2.315377      0.011791
  O       0.618673      1.051779      1.447911
  C       1.179585      2.130864      1.109835
  C       1.174912      3.257976      2.098235
  H       1.052360      4.213543      1.593481
  H       2.139631      3.284036      2.608019
  H       0.397987      3.126488      2.845739
  H       3.166892     -1.823814      1.406378
  H       2.065065     -2.923465     -0.817514
39
Coordinates from ORCA-job reaction4-IEIP_ts_guess_scan_13-11_orca E -1288.403140765612
  Ir      0.613857     -0.744541      0.399022
  C       0.169704     -2.861138      0.332100
  C      -0.119504     -2.429777      1.677292
  C       2.123477     -2.050821      1.259651
  C       1.552042     -2.662488      0.097839
  C       1.078889     -1.946526      2.230557
  N      -1.083457      0.102010     -0.506783
  C      -2.354231      0.271644      0.212582
  C      -3.144255      1.499438     -0.217262
  H      -3.976816      1.640707      0.470022
  H      -3.576414      1.399693     -1.213875
  H      -2.537152      2.404522     -0.187265
  C      -3.182485     -1.001434      0.078156
  H      -2.073166      0.400347      1.259077
  H      -4.083468     -0.926038      0.685692
  H      -3.489456     -1.161872     -0.956136
  H      -2.634738     -1.882522      0.408639
  C      -0.937479      0.493269     -1.720166
  C       0.377055      0.324778     -2.256150
  H      -1.746676      0.946203     -2.283434
  C       1.383150     -0.020071     -1.349290
  C       2.610450     -0.220877     -2.059048
  S       0.906758      0.427708     -3.864612
  C       2.495495     -0.007232     -3.399888
  H       1.639126      1.188623     -0.712001
  H       3.551952     -0.458180     -1.584783
  H       3.274190     -0.065657     -4.145209
  H      -0.525003     -3.320376     -0.355783
  H      -1.071456     -2.490826      2.181820
  H       1.180837     -1.499300      3.209156
  O       1.758725      2.314811      0.009569
  O       0.619612      1.052490      1.447837
  C       1.180290      2.131201      1.108569
  C       1.177689      3.259011      2.096216
  H       1.056253      4.214425      1.590947
  H       2.142626      3.283916      2.605650
  H       0.400943      3.129084      2.844201
  H       3.164791     -1.817629      1.419081
  H       2.077215     -2.917384     -0.811249
39
Coordinates from ORCA-job reaction4-IEIP_ts_guess_scan_13-11_orca E -1288.403143125625
  Ir      0.614002     -0.744674      0.399291
  C       0.173496     -2.861296      0.329739
  C      -0.120862     -2.431475      1.674447
  C       2.122794     -2.048504      1.264836
  C       1.556584     -2.660529      0.100843
  C       1.074582     -1.946768      2.232432
  N      -1.083758      0.100721     -0.506260
  C      -2.354262      0.270204      0.213757
  C      -3.142182      1.500583     -0.212572
  H      -3.974296      1.641449      0.475357
  H      -3.574835      1.404551     -1.209334
  H      -2.533374      2.404429     -0.180205
  C      -3.184365     -1.001256      0.075701
  H      -2.073039      0.395632      1.260574
  H      -4.084596     -0.926828      0.684485
  H      -3.492715     -1.157661     -0.958796
  H      -2.637389     -1.884284      0.402349
  C      -0.938779      0.491168     -1.720085
  C       0.375524      0.322653     -2.256488
  H      -1.748535      0.943306     -2.283182
  C       1.382202     -0.021922     -1.350213
  C       2.609536     -0.221148     -2.060065
  S       0.905172      0.427158     -3.865053
  C       2.494102     -0.006767     -3.400841
  H       1.637384      1.186939     -0.713025
  H       3.551268     -0.458261     -1.586170
  H       3.272670     -0.064109     -4.146385
  H      -0.517931     -3.321545     -0.360753
  H      -1.074745     -2.493599      2.175207
  H       1.172339     -1.500088      3.211695
  O       1.758342      2.313770      0.007312
  O       0.620275      1.052913      1.447543
  C       1.180860      2.131316      1.106989
  C       1.179436      3.259950      2.093674
  H       1.059056      4.215017      1.587522
  H       2.144324      3.284091      2.603238
  H       0.402528      3.131554      2.841764
  H       3.163196     -1.813865      1.428070
  H       2.085361     -2.913637     -0.806654
39
Coordinates from ORCA-job reaction4-IEIP_ts_guess_scan_13-11_orca E -1288.403144856804
  Ir      0.614057     -0.745030      0.399457
  C       0.174678     -2.861628      0.329129
  C      -0.121527     -2.432048      1.673567
  C       2.122432     -2.048054      1.266945
  C       1.558078     -2.660296      0.102223
  C       1.072879     -1.946894      2.233223
  N      -1.083891      0.099943     -0.505852
  C      -2.354249      0.269420      0.214440
  C      -3.141071      1.501074     -0.210273
  H      -3.972935      1.641891      0.477984
  H      -3.573971      1.406798     -1.207094
  H      -2.531380      2.404280     -0.176823
  C      -3.185300     -1.001199      0.074639
  H      -2.072921      0.393333      1.261394
  H      -4.085364     -0.927051      0.683716
  H      -3.494019     -1.155818     -0.960015
  H      -2.638924     -1.885174      0.399779
  C      -0.939254      0.490111     -1.719926
  C       0.375040      0.321612     -2.256408
  H      -1.749168      0.941929     -2.283038
  C       1.382000     -0.023110     -1.350503
  C       2.609441     -0.220861     -2.060439
  S       0.904797      0.427916     -3.864940
  C       2.493819     -0.005296     -3.401081
  H       1.637002      1.185617     -0.713383
  H       3.551322     -0.457957     -1.586839
  H       3.272446     -0.061525     -4.146651
  H      -0.515573     -3.322244     -0.362286
  H      -1.076146     -2.494332      2.172919
  H       1.169204     -1.500454      3.212733
  O       1.758514      2.313095      0.005848
  O       0.620622      1.053043      1.447068
  C       1.181186      2.131334      1.105740
  C       1.179806      3.260421      2.091860
  H       1.060089      4.215250      1.585104
  H       2.144446      3.284290      2.601907
  H       0.402500      3.132792      2.839664
  H       3.162523     -1.813007      1.431570
  H       2.088178     -2.912984     -0.804619
