39
Coordinates from ORCA-job reaction4-IEIP_ts_guess_scan_14-7_orca E -1288.396568179543
  Ir      0.624090     -0.726805      0.384205
  C       0.173938     -2.848810      0.303195
  C      -0.072018     -2.416232      1.655423
  C       2.160762     -2.048471      1.169538
  C       1.545175     -2.648707      0.021357
  C       1.151452     -1.941844      2.173054
  N      -1.078073      0.120525     -0.514763
  C      -2.341237      0.311907      0.212037
  C      -3.136919      1.524708     -0.248732
  H      -3.962149      1.687271      0.442722
  H      -3.580004      1.391611     -1.236628
  H      -2.531136      2.431158     -0.254499
  C      -3.169078     -0.965804      0.124501
  H      -2.048629      0.471944      1.250886
  H      -4.065549     -0.870098      0.735772
  H      -3.483753     -1.160154     -0.901616
  H      -2.618915     -1.835039      0.481081
  C      -0.936362      0.486858     -1.730954
  C       0.379397      0.297517     -2.247502
  H      -1.740409      0.933404     -2.306392
  C       1.384441      0.010478     -1.312345
  C       2.613716     -0.229344     -2.013644
  S       0.909173      0.297272     -3.855070
  C       2.500802     -0.104375     -3.363285
  H       1.593028      1.128658     -0.670735
  H       3.556643     -0.424357     -1.523122
  H       3.279825     -0.204836     -4.103768
  H      -0.546900     -3.296248     -0.365352
  H      -1.006112     -2.478378      2.192269
  H       1.288021     -1.499147      3.149572
  O       1.709578      2.328804      0.040647
  O       0.598314      1.035237      1.470660
  C       1.140192      2.133398      1.131972
  C       1.104869      3.246268      2.138733
  H       0.999114      4.208756      1.643843
  H       2.052833      3.262441      2.679346
  H       0.305823      3.106505      2.861443
  H       3.207365     -1.817428      1.293627
  H       2.038062     -2.899452     -0.906735
39
Coordinates from ORCA-job reaction4-IEIP_ts_guess_scan_14-7_orca E -1288.396585993979
  Ir      0.622893     -0.719638      0.379548
  C       0.179179     -2.845526      0.300731
  C      -0.067534     -2.415783      1.653793
  C       2.163102     -2.039019      1.167710
  C       1.549890     -2.641546      0.019465
  C       1.153259     -1.936975      2.170921
  N      -1.083828      0.120624     -0.516136
  C      -2.345916      0.313222      0.212352
  C      -3.143383      1.523337     -0.252308
  H      -3.968154      1.687682      0.439258
  H      -3.587136      1.385893     -1.239319
  H      -2.538668      2.430484     -0.262216
  C      -3.172715     -0.965551      0.131228
  H      -2.052089      0.477775      1.250203
  H      -4.068463     -0.868318      0.743332
  H      -3.488668     -1.164374     -0.893647
  H      -2.621243     -1.832832      0.490535
  C      -0.941519      0.482594     -1.738299
  C       0.376368      0.293369     -2.257755
  H      -1.746789      0.925283     -2.314909
  C       1.381181      0.011929     -1.320395
  C       2.610729     -0.231896     -2.021036
  S       0.906980      0.287610     -3.865354
  C       2.498072     -0.113790     -3.371251
  H       1.597716      1.150952     -0.699512
  H       3.553886     -0.423791     -1.529549
  H       3.277273     -0.218815     -4.110808
  H      -0.540023     -3.295575     -0.367855
  H      -1.001041     -2.482104      2.191066
  H       1.288312     -1.494823      3.147906
  O       1.770440      2.298927      0.082997
  O       0.582288      1.040432      1.473605
  C       1.155129      2.126846      1.153196
  C       1.103994      3.246769      2.151055
  H       1.037091      4.207960      1.646876
  H       2.030644      3.247242      2.727681
  H       0.275069      3.127902      2.843095
  H       3.209080     -1.805519      1.292693
  H       2.043963     -2.891773     -0.908156
39
Coordinates from ORCA-job reaction4-IEIP_ts_guess_scan_14-7_orca E -1288.395557718995
  Ir      0.632289     -0.724818      0.380302
  C       0.179892     -2.853505      0.295442
  C      -0.062549     -2.434650      1.652840
  C       2.166833     -2.059415      1.164980
  C       1.551108     -2.653655      0.014053
  C       1.158013     -1.962108      2.169706
  N      -1.072402      0.126692     -0.503982
  C      -2.333345      0.322209      0.225265
  C      -3.121290      1.540953     -0.232947
  H      -3.946713      1.706358      0.457565
  H      -3.563155      1.413195     -1.222124
  H      -2.510406      2.444033     -0.235275
  C      -3.169132     -0.949980      0.134454
  H      -2.039880      0.477726      1.264664
  H      -4.065064     -0.850744      0.745991
  H      -3.485159     -1.139612     -0.892150
  H      -2.624298     -1.823582      0.488550
  C      -0.920587      0.500183     -1.730881
  C       0.400533      0.305483     -2.257089
  H      -1.722430      0.952576     -2.304534
  C       1.398758     -0.003145     -1.320202
  C       2.624639     -0.266326     -2.023027
  S       0.933797      0.305238     -3.864509
  C       2.515865     -0.133980     -3.372031
  H       1.662937      1.157055     -0.718493
  H       3.564010     -0.479002     -1.532517
  H       3.293957     -0.248844     -4.111121
  H      -0.541390     -3.297879     -0.374742
  H      -0.994913     -2.502902      2.191655
  H       1.295760     -1.527835      3.149847
  O       1.572073      2.347306      0.012976
  O       0.584348      1.030713      1.495468
  C       1.076475      2.143370      1.139268
  C       1.061190      3.257771      2.143340
  H       0.899226      4.214867      1.653056
  H       2.035864      3.304862      2.632193
  H       0.306728      3.095425      2.907733
  H       3.214030     -1.832281      1.291733
  H       2.043757     -2.902562     -0.914718
39
Coordinates from ORCA-job reaction4-IEIP_ts_guess_scan_14-7_orca E -1288.396898660177
  Ir      0.623343     -0.726806      0.381569
  C       0.169132     -2.852451      0.310015
  C      -0.070798     -2.423155      1.664427
  C       2.158778     -2.054067      1.169921
  C       1.539967     -2.655032      0.024085
  C       1.152223     -1.948235      2.176334
  N      -1.080871      0.118950     -0.511044
  C      -2.343552      0.310996      0.215190
  C      -3.137052      1.524512     -0.247428
  H      -3.964096      1.687849      0.441683
  H      -3.577200      1.391684     -1.236686
  H      -2.530547      2.430493     -0.251677
  C      -3.172578     -0.965830      0.126952
  H      -2.051834      0.470828      1.254299
  H      -4.069638     -0.869339      0.737254
  H      -3.486394     -1.159995     -0.899461
  H      -2.623531     -1.835525      0.484207
  C      -0.934869      0.487326     -1.733459
  C       0.384388      0.300708     -2.255219
  H      -1.739100      0.935159     -2.307415
  C       1.384816      0.001040     -1.318549
  C       2.617782     -0.233706     -2.017751
  S       0.919908      0.310709     -3.861325
  C       2.510278     -0.094472     -3.366449
  H       1.609287      1.146188     -0.693327
  H       3.559342     -0.431190     -1.525324
  H       3.292720     -0.187659     -4.104167
  H      -0.554062     -3.300181     -0.355804
  H      -1.002619     -2.485895      2.204982
  H       1.292220     -1.506497      3.152795
  O       1.695804      2.339406      0.033823
  O       0.598477      1.037726      1.470498
  C       1.134928      2.137788      1.130429
  C       1.103225      3.249010      2.137668
  H       0.990336      4.211699      1.644703
  H       2.054992      3.267824      2.671448
  H       0.309804      3.104879      2.865542
  H       3.206232     -1.826078      1.292447
  H       2.030130     -2.909470     -0.904447
39
Coordinates from ORCA-job reaction4-IEIP_ts_guess_scan_14-7_orca E -1288.396941034666
  Ir      0.622450     -0.725534      0.381427
  C       0.168022     -2.850434      0.312226
  C      -0.072472     -2.421280      1.666418
  C       2.157112     -2.051841      1.172454
  C       1.539080     -2.653323      0.026765
  C       1.150145     -1.946116      2.178475
  N      -1.080974      0.118579     -0.512713
  C      -2.344002      0.309077      0.213161
  C      -3.140089      1.520853     -0.249709
  H      -3.967264      1.682948      0.439538
  H      -3.580290      1.386661     -1.238729
  H      -2.535308      2.427979     -0.254587
  C      -3.170736     -0.969376      0.126563
  H      -2.052173      0.470158      1.252116
  H      -4.067807     -0.873921      0.737027
  H      -3.484386     -1.165217     -0.899567
  H      -2.619877     -1.837592      0.484657
  C      -0.936098      0.487592     -1.733527
  C       0.381909      0.302358     -2.255776
  H      -1.741023      0.935455     -2.306415
  C       1.382463      0.000241     -1.320229
  C       2.615078     -0.232881     -2.019918
  S       0.919191      0.326405     -3.861077
  C       2.506967     -0.090805     -3.368327
  H       1.608253      1.149990     -0.702556
  H       3.555978     -0.435453     -1.528449
  H       3.288695     -0.185090     -4.106690
  H      -0.554866     -3.298397     -0.353749
  H      -1.004704     -2.483503      2.206359
  H       1.289780     -1.503866      3.154756
  O       1.720170      2.328839      0.044297
  O       0.597229      1.039093      1.468777
  C       1.142507      2.135083      1.133462
  C       1.107372      3.248994      2.138096
  H       1.007894      4.211568      1.642031
  H       2.052783      3.261615      2.683289
  H       0.304194      3.112569      2.856727
  H       3.204505     -1.823932      1.295548
  H       2.029662     -2.908304     -0.901410
39
Coordinates from ORCA-job reaction4-IEIP_ts_guess_scan_14-7_orca E -1288.396983245496
  Ir      0.621148     -0.727549      0.382141
  C       0.163518     -2.851418      0.317929
  C      -0.075435     -2.421994      1.672271
  C       2.153902     -2.054760      1.175920
  C       1.534819     -2.656562      0.031252
  C       1.147603     -1.947606      2.182732
  N      -1.081412      0.117472     -0.513051
  C      -2.345256      0.306039      0.212059
  C      -3.142612      1.517420     -0.249700
  H      -3.970315      1.677674      0.439308
  H      -3.582195      1.383873     -1.239078
  H      -2.538905      2.425279     -0.253170
  C      -3.170834     -0.973101      0.124167
  H      -2.054137      0.466425      1.251381
  H      -4.068413     -0.878830      0.734062
  H      -3.483533     -1.168587     -0.902323
  H      -2.619421     -1.840961      0.482158
  C      -0.936138      0.489105     -1.732810
  C       0.381142      0.304136     -2.256004
  H      -1.741379      0.937559     -2.304781
  C       1.380376     -0.005201     -1.321322
  C       2.614522     -0.231632     -2.020398
  S       0.920208      0.336977     -3.860579
  C       2.509416     -0.073734     -3.367384
  H       1.609022      1.151306     -0.710635
  H       3.554586     -0.437785     -1.528904
  H       3.293260     -0.157915     -4.104746
  H      -0.560315     -3.299152     -0.347193
  H      -1.007534     -2.482412      2.212620
  H       1.288521     -1.504627      3.158494
  O       1.728101      2.326221      0.041293
  O       0.601377      1.040091      1.465698
  C       1.150143      2.133648      1.130910
  C       1.114292      3.250296      2.132676
  H       1.016964      4.211881      1.634284
  H       2.058591      3.263021      2.679786
  H       0.309474      3.116469      2.849978
  H       3.201695     -1.828457      1.298579
  H       2.024525     -2.913419     -0.896879
39
Coordinates from ORCA-job reaction4-IEIP_ts_guess_scan_14-7_orca E -1288.397050559049
  Ir      0.618043     -0.732253      0.383335
  C       0.155545     -2.854126      0.329385
  C      -0.081532     -2.424015      1.683901
  C       2.147385     -2.059522      1.184135
  C       1.527464     -2.662881      0.041209
  C       1.141595     -1.949937      2.191929
  N      -1.082801      0.114007     -0.513925
  C      -2.348142      0.298581      0.209983
  C      -3.147510      1.509646     -0.249031
  H      -3.976144      1.666110      0.439662
  H      -3.585961      1.378100     -1.239197
  H      -2.545645      2.418753     -0.249206
  C      -3.171689     -0.981614      0.118442
  H      -2.058506      0.456917      1.250125
  H      -4.070409     -0.889712      0.726982
  H      -3.482281     -1.175675     -0.908966
  H      -2.619633     -1.849216      0.475881
  C      -0.935918      0.493309     -1.731228
  C       0.381355      0.311935     -2.255240
  H      -1.741011      0.945325     -2.300613
  C       1.377000     -0.015210     -1.322489
  C       2.614233     -0.229081     -2.020266
  S       0.928165      0.377983     -3.856240
  C       2.514132     -0.045689     -3.364638
  H       1.612285      1.153341     -0.723040
  H       3.551664     -0.447945     -1.529328
  H       3.300816     -0.117173     -4.100343
  H      -0.569367     -3.302185     -0.334395
  H      -1.013719     -2.481359      2.224368
  H       1.284087     -1.505072      3.166592
  O       1.728733      2.330478      0.025819
  O       0.609273      1.042914      1.456908
  C       1.156266      2.135322      1.119025
  C       1.130120      3.252036      2.121206
  H       1.031246      4.214014      1.623985
  H       2.078210      3.262579      2.661807
  H       0.330049      3.119424      2.844025
  H       3.195706     -1.835545      1.306585
  H       2.016264     -2.923374     -0.886403
39
Coordinates from ORCA-job reaction4-IEIP_ts_guess_scan_14-7_orca E -1288.397063183339
  Ir      0.617874     -0.734752      0.383060
  C       0.154828     -2.855634      0.330338
  C      -0.083941     -2.425522      1.684657
  C       2.145599     -2.060877      1.187643
  C       1.527423     -2.664978      0.044196
  C       1.138364     -1.951153      2.194218
  N      -1.082066      0.112845     -0.513983
  C      -2.346851      0.297732      0.210763
  C      -3.145889      1.509244     -0.247508
  H      -3.973974      1.665764      0.441847
  H      -3.585050      1.378256     -1.237446
  H      -2.543662      2.418112     -0.247697
  C      -3.170829     -0.982118      0.119168
  H      -2.056515      0.455785      1.250739
  H      -4.069475     -0.889796      0.727753
  H      -3.481543     -1.175967     -0.908233
  H      -2.619191     -1.850052      0.476525
  C      -0.935302      0.494592     -1.730435
  C       0.381889      0.313304     -2.254688
  H      -1.740035      0.948510     -2.298783
  C       1.376947     -0.018019     -1.322843
  C       2.614510     -0.229366     -2.020848
  S       0.930085      0.387498     -3.854839
  C       2.515308     -0.039382     -3.364498
  H       1.613679      1.153911     -0.728045
  H       3.551331     -0.452200     -1.530538
  H       3.302413     -0.107606     -4.100066
  H      -0.569122     -3.304010     -0.334279
  H      -1.017043     -2.482389      2.223592
  H       1.279618     -1.505882      3.168857
  O       1.722384      2.332913      0.019040
  O       0.610412      1.042144      1.453604
  C       1.154040      2.135630      1.114272
  C       1.130219      3.251569      2.117378
  H       1.028109      4.213768      1.621238
  H       2.080365      3.262907      2.654328
  H       0.333142      3.117341      2.843209
  H       3.193755     -1.836920      1.311593
  H       2.017567     -2.926011     -0.882550
39
Coordinates from ORCA-job reaction4-IEIP_ts_guess_scan_14-7_orca E -1288.397071179936
  Ir      0.618288     -0.737096      0.382731
  C       0.155860     -2.857343      0.330025
  C      -0.085903     -2.427042      1.683927
  C       2.144531     -2.061487      1.191641
  C       1.529258     -2.666582      0.047142
  C       1.134954     -1.952005      2.196173
  N      -1.081803      0.112174     -0.513724
  C      -2.346201      0.296885      0.211926
  C      -3.144748      1.509426     -0.244425
  H      -3.972358      1.665350      0.445663
  H      -3.584523      1.380124     -1.234309
  H      -2.542106      2.418024     -0.243551
  C      -3.170845     -0.982376      0.118580
  H      -2.055354      0.453523      1.251942
  H      -4.069530     -0.890242      0.727151
  H      -3.481553     -1.174685     -0.909104
  H      -2.619899     -1.851195      0.474799
  C      -0.935084      0.496359     -1.729424
  C       0.382187      0.314506     -2.253853
  H      -1.739248      0.952157     -2.297006
  C       1.377204     -0.019482     -1.322870
  C       2.614587     -0.229812     -2.021603
  S       0.930729      0.393613     -3.853594
  C       2.515342     -0.036589     -3.364877
  H       1.614124      1.154681     -0.732054
  H       3.551172     -0.455425     -1.532102
  H       3.302302     -0.103442     -4.100718
  H      -0.566323     -3.306566     -0.335936
  H      -1.020278     -2.483963      2.220645
  H       1.273921     -1.506454      3.170999
  O       1.719147      2.334758      0.013861
  O       0.612149      1.041854      1.450778
  C       1.153715      2.136110      1.110444
  C       1.130097      3.251776      2.113806
  H       1.025801      4.213942      1.618039
  H       2.081221      3.264129      2.648992
  H       0.334566      3.116375      2.841113
  H       3.192308     -1.837023      1.317884
  H       2.021663     -2.927768     -0.878368
39
Coordinates from ORCA-job reaction4-IEIP_ts_guess_scan_14-7_orca E -1288.397075230341
  Ir      0.618911     -0.738811      0.382266
  C       0.158484     -2.858777      0.328483
  C      -0.088270     -2.428219      1.681632
  C       2.143413     -2.060565      1.196988
  C       1.532917     -2.667087      0.050753
  C       1.130073     -1.951952      2.198222
  N      -1.081689      0.111999     -0.513132
  C      -2.345742      0.295995      0.213355
  C      -3.143816      1.509818     -0.240367
  H      -3.971148      1.664582      0.450333
  H      -3.583904      1.382900     -1.230417
  H      -2.540846      2.418199     -0.237602
  C      -3.170841     -0.982742      0.117148
  H      -2.054474      0.450495      1.253545
  H      -4.069573     -0.891574      0.725813
  H      -3.481544     -1.172613     -0.910985
  H      -2.620371     -1.852690      0.471334
  C      -0.935266      0.498243     -1.728195
  C       0.382019      0.315535     -2.253067
  H      -1.738918      0.955740     -2.295103
  C       1.377434     -0.019848     -1.322942
  C       2.614088     -0.230757     -2.022940
  S       0.929480      0.395513     -3.853021
  C       2.514178     -0.035931     -3.365956
  H       1.613816      1.155998     -0.736349
  H       3.550806     -0.457928     -1.534400
  H       3.300621     -0.102397     -4.102378
  H      -0.560716     -3.309572     -0.339622
  H      -1.024547     -2.485782      2.214965
  H       1.265141     -1.506188      3.173482
  O       1.717053      2.336381      0.009330
  O       0.613812      1.041887      1.447862
  C       1.153010      2.137077      1.106467
  C       1.130915      3.251733      2.110949
  H       1.025777      4.214376      1.616288
  H       2.082945      3.263508      2.644569
  H       0.336649      3.115617      2.839489
  H       3.190504     -1.834940      1.326820
  H       2.028990     -2.928033     -0.872876
39
Coordinates from ORCA-job reaction4-IEIP_ts_guess_scan_14-7_orca E -1288.397076956324
  Ir      0.619814     -0.739581      0.381913
  C       0.162028     -2.859771      0.326034
  C      -0.090055     -2.429422      1.678478
  C       2.142769     -2.058992      1.201938
  C       1.537394     -2.666635      0.053741
  C       1.125463     -1.951895      2.199744
  N      -1.081562      0.112325     -0.512085
  C      -2.345413      0.295323      0.214926
  C      -3.142780      1.510738     -0.235723
  H      -3.970140      1.664089      0.455262
  H      -3.582730      1.386761     -1.226205
  H      -2.539354      2.418804     -0.230367
  C      -3.171076     -0.982787      0.115109
  H      -2.053966      0.447035      1.255466
  H      -4.069724     -0.893093      0.724127
  H      -3.481984     -1.169442     -0.913552
  H      -2.620931     -1.854093      0.466461
  C      -0.935617      0.499801     -1.726764
  C       0.381543      0.316616     -2.252426
  H      -1.739006      0.958632     -2.292977
  C       1.377599     -0.019296     -1.323066
  C       2.613146     -0.232190     -2.024634
  S       0.927216      0.395692     -3.852901
  C       2.511871     -0.038389     -3.367625
  H       1.613491      1.157189     -0.739106
  H       3.550234     -0.460053     -1.537109
  H       3.297314     -0.106516     -4.104959
  H      -0.553934     -3.312224     -0.344403
  H      -1.028251     -2.488082      2.208325
  H       1.256279     -1.506286      3.175645
  O       1.717983      2.337126      0.007105
  O       0.616180      1.041880      1.446115
  C       1.155407      2.137139      1.104776
  C       1.130717      3.252275      2.108653
  H       1.025285      4.214647      1.613512
  H       2.082049      3.265131      2.643489
  H       0.335671      3.115664      2.836244
  H       3.189102     -1.832068      1.335586
  H       2.037338     -2.926862     -0.868008
39
Coordinates from ORCA-job reaction4-IEIP_ts_guess_scan_14-7_orca E -1288.397078344085
  Ir      0.620321     -0.739113      0.381856
  C       0.165605     -2.860064      0.324011
  C      -0.090982     -2.430307      1.675932
  C       2.142530     -2.056576      1.206022
  C       1.541569     -2.665121      0.056172
  C       1.121973     -1.951379      2.201034
  N      -1.081924      0.112525     -0.511406
  C      -2.345889      0.294613      0.215559
  C      -3.142487      1.511441     -0.232595
  H      -3.970164      1.663629      0.458258
  H      -3.581919      1.390030     -1.223621
  H      -2.538566      2.419157     -0.224805
  C      -3.172107     -0.982928      0.112616
  H      -2.054655      0.443826      1.256530
  H      -4.070536     -0.894674      0.722165
  H      -3.483408     -1.166646     -0.916462
  H      -2.622059     -1.855382      0.461252
  C      -0.936441      0.499771     -1.726163
  C       0.380495      0.316569     -2.252582
  H      -1.740016      0.958623     -2.292123
  C       1.377135     -0.018584     -1.323450
  C       2.611965     -0.233129     -2.025989
  S       0.924396      0.392415     -3.853718
  C       2.509674     -0.041019     -3.369020
  H       1.612401      1.158075     -0.740491
  H       3.549541     -0.459968     -1.538911
  H       3.294488     -0.110399     -4.106909
  H      -0.547528     -3.314085     -0.348363
  H      -1.030687     -2.490309      2.202960
  H       1.249095     -1.506000      3.177528
  O       1.718369      2.337618      0.006135
  O       0.617526      1.042493      1.445801
  C       1.156061      2.137892      1.103919
  C       1.132719      3.252686      2.108265
  H       1.028249      4.215417      1.613642
  H       2.084108      3.264342      2.643054
  H       0.337618      3.116502      2.835879
  H       3.188166     -1.828328      1.342842
  H       2.044735     -2.924424     -0.864084
39
Coordinates from ORCA-job reaction4-IEIP_ts_guess_scan_14-7_orca E -1288.397080370163
  Ir      0.620797     -0.738045      0.381925
  C       0.170706     -2.860148      0.320920
  C      -0.092296     -2.432064      1.672280
  C       2.142043     -2.052951      1.211881
  C       1.547471     -2.662402      0.059520
  C       1.116906     -1.951129      2.202982
  N      -1.082293      0.112434     -0.510526
  C      -2.346333      0.293597      0.216406
  C      -3.141407      1.512729     -0.228125
  H      -3.969428      1.663646      0.462572
  H      -3.580241      1.395124     -1.219875
  H      -2.536336      2.419637     -0.217017
  C      -3.173705     -0.982908      0.109366
  H      -2.055334      0.439141      1.257977
  H      -4.071385     -0.896594      0.720277
  H      -3.486256     -1.162283     -0.920112
  H      -2.623649     -1.857097      0.453710
  C      -0.937757      0.498465     -1.725698
  C       0.378670      0.315668     -2.253358
  H      -1.742030      0.956622     -2.291299
  C       1.375985     -0.018326     -1.324444
  C       2.610189     -0.234292     -2.027889
  S       0.920691      0.388259     -3.855190
  C       2.506770     -0.044235     -3.370954
  H       1.610711      1.158627     -0.741878
  H       3.548343     -0.459598     -1.541195
  H       3.290916     -0.114925     -4.109433
  H      -0.538343     -3.316148     -0.354404
  H      -1.034196     -2.494102      2.195162
  H       1.238693     -1.506301      3.180403
  O       1.718163      2.338064      0.004702
  O       0.619410      1.043189      1.446021
  C       1.157198      2.138526      1.103214
  C       1.135498      3.253448      2.107545
  H       1.032315      4.216388      1.613098
  H       2.086845      3.263839      2.642448
  H       0.340194      3.118141      2.835119
  H       3.186654     -1.822847      1.353335
  H       2.055192     -2.919960     -0.858722
39
Coordinates from ORCA-job reaction4-IEIP_ts_guess_scan_14-7_orca E -1288.397083509332
  Ir      0.621274     -0.737474      0.382126
  C       0.176693     -2.860552      0.317329
  C      -0.094023     -2.434920      1.668116
  C       2.141315     -2.049171      1.219321
  C       1.554487     -2.659497      0.063827
  C       1.110694     -1.951610      2.205714
  N      -1.082574      0.111571     -0.509640
  C      -2.346444      0.292241      0.217692
  C      -3.139019      1.514620     -0.222287
  H      -3.967057      1.664548      0.468595
  H      -3.577659      1.401891     -1.214693
  H      -2.531959      2.420132     -0.207468
  C      -3.175921     -0.982520      0.105906
  H      -2.055459      0.433268      1.259884
  H      -4.072427     -0.898015      0.718777
  H      -3.490452     -1.156489     -0.923908
  H      -2.626259     -1.859091      0.444882
  C      -0.939374      0.496182     -1.725366
  C       0.376411      0.313741     -2.254385
  H      -1.744619      0.953277     -2.290502
  C       1.374381     -0.019428     -1.325867
  C       2.608302     -0.235346     -2.029939
  S       0.917244      0.385496     -3.856622
  C       2.504004     -0.046089     -3.372952
  H       1.608663      1.158416     -0.743894
  H       3.546901     -0.459640     -1.543620
  H       3.287683     -0.116937     -4.111912
  H      -0.527423     -3.318635     -0.361716
  H      -1.038669     -2.499230      2.185771
  H       1.226070     -1.507488      3.184225
  O       1.715970      2.338601      0.001524
  O       0.621572      1.043707      1.446105
  C       1.157755      2.139123      1.101544
  C       1.138180      3.254521      2.105448
  H       1.035892      4.217460      1.610864
  H       2.089772      3.263849      2.639941
  H       0.343110      3.120291      2.833505
  H       3.184661     -1.816893      1.366443
  H       2.067673     -2.914717     -0.852029
39
Coordinates from ORCA-job reaction4-IEIP_ts_guess_scan_14-7_orca E -1288.397087063752
  Ir      0.621891     -0.737604      0.382393
  C       0.183738     -2.861312      0.312919
  C      -0.096337     -2.438783      1.663002
  C       2.140274     -2.045306      1.228578
  C       1.562866     -2.656461      0.069179
  C       1.103009     -1.952788      2.209144
  N      -1.082632      0.109917     -0.508596
  C      -2.345980      0.290534      0.219780
  C      -3.134952      1.517320     -0.214332
  H      -3.962522      1.666502      0.477284
  H      -3.574001      1.410878     -1.207252
  H      -2.524952      2.420760     -0.195278
  C      -3.178648     -0.981628      0.102247
  H      -2.054660      0.425939      1.262586
  H      -4.073552     -0.898872      0.717690
  H      -3.495917     -1.148801     -0.927856
  H      -2.629918     -1.861403      0.434512
  C      -0.941265      0.492944     -1.725053
  C       0.373806      0.310595     -2.255510
  H      -1.747714      0.948607     -2.289655
  C       1.372547     -0.021980     -1.327693
  C       2.606428     -0.236396     -2.032211
  S       0.914040      0.383845     -3.857932
  C       2.501358     -0.046688     -3.375119
  H       1.606408      1.157228     -0.746666
  H       3.545380     -0.460249     -1.546361
  H       3.284706     -0.116514     -4.114526
  H      -0.514392     -3.321574     -0.370786
  H      -1.044422     -2.505524      2.174049
  H       1.210650     -1.509575      3.188931
  O       1.712111      2.338976     -0.003497
  O       0.623918      1.043973      1.445751
  C       1.157648      2.139654      1.098581
  C       1.140051      3.255961      2.101509
  H       1.038563      4.218635      1.606294
  H       2.091871      3.264432      2.635611
  H       0.345250      3.123121      2.830142
  H       3.182050     -1.810501      1.382656
  H       2.082674     -2.908673     -0.843776
39
Coordinates from ORCA-job reaction4-IEIP_ts_guess_scan_14-7_orca E -1288.397089026460
  Ir      0.622446     -0.738233      0.382597
  C       0.188049     -2.861959      0.310155
  C      -0.097692     -2.441245      1.659756
  C       2.139736     -2.043487      1.234316
  C       1.568041     -2.654963      0.072445
  C       1.098455     -1.953806      2.211198
  N      -1.082488      0.108468     -0.507816
  C      -2.345311      0.289382      0.221571
  C      -3.131443      1.519441     -0.208432
  H      -3.958389      1.668441      0.483996
  H      -3.571154      1.417462     -1.201527
  H      -2.519134      2.421244     -0.186685
  C      -3.180577     -0.980673      0.100037
  H      -2.053584      0.420929      1.264709
  H      -4.074461     -0.898718      0.717084
  H      -3.499657     -1.143145     -0.930256
  H      -2.632961     -1.862843      0.427851
  C      -0.942402      0.490534     -1.724816
  C       0.372323      0.307950     -2.255991
  H      -1.749613      0.945107     -2.289195
  C       1.371688     -0.024335     -1.328832
  C       2.605645     -0.236918     -2.033516
  S       0.912565      0.383413     -3.858427
  C       2.500084     -0.046269     -3.376371
  H       1.605430      1.155670     -0.748372
  H       3.544781     -0.460835     -1.548053
  H       3.283305     -0.114779     -4.116035
  H      -0.506467     -3.323309     -0.376473
  H      -1.047940     -2.509194      2.166639
  H       1.201464     -1.511238      3.191760
  O       1.709486      2.338722     -0.007047
  O       0.625006      1.043939      1.445252
  C       1.157056      2.139862      1.096185
  C       1.139740      3.257076      2.098047
  H       1.039038      4.219362      1.601946
  H       2.091301      3.265211      2.632619
  H       0.344597      3.125367      2.826523
  H       3.180542     -1.807217      1.392651
  H       2.091866     -2.905223     -0.838751
39
Coordinates from ORCA-job reaction4-IEIP_ts_guess_scan_14-7_orca E -1288.397089300003
  Ir      0.622798     -0.738680      0.382688
  C       0.189214     -2.862211      0.309354
  C      -0.098033     -2.441772      1.658753
  C       2.139715     -2.043377      1.235917
  C       1.569494     -2.654814      0.073309
  C       1.097349     -1.954147      2.211676
  N      -1.082290      0.107840     -0.507381
  C      -2.344866      0.288915      0.222482
  C      -3.129759      1.520375     -0.205822
  H      -3.956334      1.669395      0.487065
  H      -3.569878      1.420265     -1.198923
  H      -2.516454      2.421471     -0.183037
  C      -3.181270     -0.980192      0.099192
  H      -2.052930      0.418901      1.265728
  H      -4.074912     -0.898419      0.716627
  H      -3.500844     -1.140792     -0.931237
  H      -2.634350     -1.863401      0.425419
  C      -0.942678      0.489565     -1.724617
  C       0.372006      0.306766     -2.255901
  H      -1.750124      0.943642     -2.289043
  C       1.371741     -0.025410     -1.329132
  C       2.605683     -0.237016     -2.033920
  S       0.912281      0.383354     -3.858374
  C       2.499808     -0.045839     -3.376783
  H       1.605692      1.154628     -0.748701
  H       3.544926     -0.461028     -1.548717
  H       3.282982     -0.113667     -4.116561
  H      -0.504380     -3.323690     -0.378113
  H      -1.048918     -2.509795      2.164446
  H       1.199205     -1.511861      3.192482
  O       1.709230      2.338163     -0.008076
  O       0.624991      1.043893      1.444869
  C       1.156680      2.139868      1.095161
  C       1.138460      3.257644      2.096333
  H       1.038743      4.219677      1.599549
  H       2.089339      3.265596      2.632124
  H       0.342388      3.126670      2.823926
  H       3.180274     -1.806794      1.395394
  H       2.094391     -2.904531     -0.837418
