! Opt PBEh-3c
%geom Constraints
{ B 0 20 2.0428571428571427 C }
{ B 24 30 1.3571428571428572 C }
    end
end
%output 
xyzfile=True 
end 
%scf 
maxiter 250 
end
%output
Print[P_Hirshfeld] = 1
end
% maxcore
4000
*xyz 1 1
Ir   0.61554241  -0.73628593   0.41157274 
C    0.15645209  -2.85275860   0.33388319 
C   -0.09414070  -2.40875089   1.68144975 
C    2.14339262  -2.06052084   1.20741620 
C    1.52973263  -2.66071912   0.05745230 
C    1.13067361  -1.94021990   2.20296752 
N   -1.07432374   0.11102566  -0.50891149 
C   -2.34497941   0.29902843   0.20673470 
C   -3.13708487   1.51316834  -0.25704271 
H   -3.96765857   1.67403747   0.42837178 
H   -3.57242104   1.38304417  -1.24875044 
H   -2.53109495   2.41948951  -0.25574040 
C   -3.17208282  -0.97810757   0.10789286 
H   -2.06300562   0.45662537   1.24891653 
H   -4.07526534  -0.88388628   0.70947538 
H   -3.47544455  -1.17046908  -0.92200909 
H   -2.62612941  -1.84833749   0.46856977 
C   -0.92665696   0.47903778  -1.72894062 
C    0.38923308   0.30694176  -2.26357200 
H   -1.73631893   0.91878430  -2.30209697 
C    1.41464337   0.02938610  -1.35630398 
C    2.63363374  -0.19674946  -2.07067804 
S    0.89325738   0.31912498  -3.88262644 
C    2.49623211  -0.06664838  -3.41923398 
H    1.62886452   1.15227863  -0.66545674 
H    3.58534649  -0.38843554  -1.59628937 
H    3.26374396  -0.15790320  -4.17277571 
H   -0.56394965  -3.29780492  -0.33674688 
H   -1.03052789  -2.46370324   2.21511231 
H    1.26499976  -1.49345638   3.17797808 
O    1.74254878   2.30578209   0.06756576 
O    0.59011203   1.03649223   1.48689488 
C    1.15267816   2.12271518   1.15398627 
C    1.12393028   3.24431903   2.14949645 
H    1.00441426   4.20106597   1.64626684 
H    2.07976119   3.27388111   2.67541750 
H    0.33553114   3.10618642   2.88383146 
H    3.19029259  -1.83255443   1.33453205 
H    2.02543821  -2.91591337  -0.86786939 
*
