39
Coordinates from ORCA-job reaction4-IEIP_ts_guess_scan_13-13_orca E -1288.405054195894
  Ir      0.613799     -0.738435      0.403009
  C       0.164647     -2.851494      0.325632
  C      -0.113692     -2.414278      1.670980
  C       2.131257     -2.049855      1.237485
  C       1.545298     -2.654939      0.078233
  C       1.095862     -1.937301      2.216048
  N      -1.081786      0.104593     -0.510607
  C      -2.354178      0.275462      0.206687
  C      -3.145931      1.499766     -0.230420
  H      -3.977834      1.644606      0.456962
  H      -3.579198      1.393291     -1.225836
  H      -2.539830      2.405709     -0.206925
  C      -3.180564     -0.999291      0.078192
  H      -2.074978      0.410689      1.252802
  H      -4.083611     -0.920810      0.682306
  H      -3.484118     -1.167240     -0.955922
  H      -2.633314     -1.877665      0.416702
  C      -0.936935      0.486073     -1.721549
  C       0.376487      0.315401     -2.247032
  H      -1.745630      0.931145     -2.292055
  C       1.387858     -0.006093     -1.339912
  C       2.611927     -0.214610     -2.048254
  S       0.900023      0.388031     -3.860915
  C       2.491211     -0.029459     -3.393431
  H       1.633923      1.182348     -0.657727
  H       3.556439     -0.437914     -1.573242
  H       3.267549     -0.099746     -4.140265
  H      -0.538501     -3.303622     -0.358396
  H      -1.061170     -2.472782      2.184250
  H       1.208167     -1.490514      3.193780
  O       1.764408      2.291050      0.035887
  O       0.607122      1.051609      1.462985
  C       1.176536      2.124217      1.128943
  C       1.173968      3.257562      2.109606
  H       1.049086      4.209211      1.597902
  H       2.140359      3.288530      2.615871
  H       0.399250      3.131278      2.860244
  H       3.174552     -1.818172      1.385724
  H       2.060913     -2.907159     -0.837005
39
Coordinates from ORCA-job reaction4-IEIP_ts_guess_scan_13-13_orca E -1288.405286093634
  Ir      0.613469     -0.739407      0.400559
  C       0.163868     -2.854698      0.327009
  C      -0.112080     -2.419121      1.673321
  C       2.130938     -2.052876      1.236400
  C       1.543938     -2.658700      0.078143
  C       1.096686     -1.941366      2.215887
  N      -1.084248      0.102772     -0.508815
  C      -2.355936      0.274884      0.209520
  C      -3.145874      1.500388     -0.227439
  H      -3.977838      1.646191      0.459647
  H      -3.578817      1.394781     -1.223110
  H      -2.538586      2.405545     -0.203502
  C      -3.184295     -0.998548      0.080978
  H      -2.076317      0.409497      1.255641
  H      -4.087105     -0.918881      0.685288
  H      -3.488401     -1.165823     -0.953098
  H      -2.638336     -1.877830      0.419162
  C      -0.936420      0.485635     -1.724376
  C       0.380300      0.317244     -2.252206
  H      -1.744571      0.932106     -2.294479
  C       1.388304     -0.010057     -1.343272
  C       2.613947     -0.218105     -2.050183
  S       0.908123      0.396912     -3.864625
  C       2.497086     -0.026864     -3.394871
  H       1.640180      1.189137     -0.660179
  H       3.557111     -0.444482     -1.573769
  H       3.275260     -0.096036     -4.139810
  H      -0.539958     -3.307570     -0.355852
  H      -1.058455     -2.478794      2.188380
  H       1.210091     -1.495157      3.193746
  O       1.767494      2.298603      0.032804
  O       0.605955      1.053697      1.462376
  C       1.176517      2.128094      1.127711
  C       1.170137      3.261520      2.107945
  H       1.044692      4.212912      1.595828
  H       2.135400      3.294135      2.616241
  H       0.393989      3.133909      2.856794
  H       3.174497     -1.822011      1.384151
  H       2.058626     -2.912447     -0.837204
39
Coordinates from ORCA-job reaction4-IEIP_ts_guess_scan_13-13_orca E -1288.405380103141
  Ir      0.613064     -0.740034      0.399493
  C       0.160277     -2.855984      0.332057
  C      -0.112744     -2.421587      1.679119
  C       2.128866     -2.056079      1.238072
  C       1.540191     -2.662340      0.081324
  C       1.095917     -1.944337      2.218733
  N      -1.084298      0.102135     -0.507021
  C      -2.355695      0.273577      0.210434
  C      -3.145125      1.499147     -0.227205
  H      -3.978508      1.644611      0.458273
  H      -3.575869      1.393793     -1.223847
  H      -2.538015      2.404367     -0.201807
  C      -3.183644     -1.000019      0.081285
  H      -2.076427      0.407876      1.256682
  H      -4.086834     -0.920805      0.685122
  H      -3.487077     -1.167233     -0.952969
  H      -2.637431     -1.879133      0.419685
  C      -0.935200      0.488044     -1.723692
  C       0.381757      0.321330     -2.255218
  H      -1.743965      0.935898     -2.291667
  C       1.386900     -0.016515     -1.347208
  C       2.613634     -0.221213     -2.053636
  S       0.911479      0.409984     -3.866672
  C       2.499690     -0.016915     -3.396709
  H       1.647802      1.193802     -0.664124
  H       3.555659     -0.452803     -1.577411
  H       3.279471     -0.080573     -4.140431
  H      -0.544843     -3.308916     -0.349405
  H      -1.058249     -2.480684      2.195811
  H       1.211108     -1.498191      3.196415
  O       1.771011      2.303400      0.029387
  O       0.606737      1.054511      1.459440
  C       1.176964      2.129405      1.124789
  C       1.168632      3.262570      2.104426
  H       1.043111      4.213878      1.592140
  H       2.133180      3.295930      2.614079
  H       0.391447      3.133996      2.851949
  H       3.172923     -1.827152      1.385172
  H       2.053476     -2.918554     -0.834128
39
Coordinates from ORCA-job reaction4-IEIP_ts_guess_scan_13-13_orca E -1288.405444075456
  Ir      0.612917     -0.741241      0.399086
  C       0.156224     -2.856782      0.338544
  C      -0.114492     -2.423305      1.686200
  C       2.126344     -2.059398      1.241821
  C       1.536357     -2.665953      0.086356
  C       1.094276     -1.946913      2.223492
  N      -1.083679      0.101794     -0.506575
  C      -2.355806      0.270763      0.209691
  C      -3.146816      1.495905     -0.226490
  H      -3.981405      1.638880      0.458037
  H      -3.575968      1.391564     -1.223892
  H      -2.541158      2.402027     -0.198738
  C      -3.182207     -1.003678      0.078741
  H      -2.077437      0.403844      1.256387
  H      -4.085954     -0.926280      0.681995
  H      -3.484553     -1.170248     -0.955925
  H      -2.635003     -1.882312      0.416735
  C      -0.933445      0.492764     -1.721962
  C       0.382714      0.328288     -2.256296
  H      -1.742569      0.943545     -2.286957
  C       1.385070     -0.023941     -1.350921
  C       2.612531     -0.224323     -2.057264
  S       0.916405      0.438919     -3.865208
  C       2.500303     -0.007187     -3.398634
  H       1.657503      1.197515     -0.669017
  H       3.552673     -0.466678     -1.582708
  H       3.280484     -0.068402     -4.142149
  H      -0.550056     -3.309553     -0.341830
  H      -1.059600     -2.480941      2.203756
  H       1.211089     -1.500473      3.200856
  O       1.775961      2.306741      0.025917
  O       0.609821      1.056155      1.455470
  C       1.179416      2.130520      1.121232
  C       1.169844      3.264606      2.099292
  H       1.044760      4.215485      1.586103
  H       2.133764      3.298652      2.610112
  H       0.391706      3.136275      2.845862
  H       3.170904     -1.832701      1.388669
  H       2.048454     -2.924740     -0.829047
39
Coordinates from ORCA-job reaction4-IEIP_ts_guess_scan_13-13_orca E -1288.405497377533
  Ir      0.612565     -0.745030      0.399327
  C       0.149782     -2.858513      0.346929
  C      -0.118961     -2.424964      1.694897
  C       2.121953     -2.065166      1.247950
  C       1.530662     -2.672005      0.093769
  C       1.090420     -1.950307      2.230437
  N      -1.082320      0.101317     -0.506581
  C      -2.355591      0.267087      0.208662
  C      -3.148956      1.491678     -0.224866
  H      -3.984288      1.631199      0.459405
  H      -3.577312      1.388849     -1.222763
  H      -2.545186      2.398996     -0.194521
  C      -3.180226     -1.008295      0.075267
  H      -2.078291      0.398490      1.255936
  H      -4.084631     -0.933054      0.677784
  H      -3.481242     -1.173853     -0.959959
  H      -2.632021     -1.886502      0.412604
  C      -0.931313      0.498377     -1.719229
  C       0.382738      0.333596     -2.256127
  H      -1.740741      0.952353     -2.281232
  C       1.382475     -0.035194     -1.354707
  C       2.611295     -0.227009     -2.060615
  S       0.918682      0.460601     -3.863303
  C       2.503130      0.016290     -3.398145
  H       1.667821      1.198318     -0.677114
  H       3.549707     -0.479514     -1.588058
  H       3.285749     -0.031414     -4.140123
  H      -0.557789     -3.310662     -0.332553
  H      -1.064226     -2.479385      2.212478
  H       1.208957     -1.502913      3.207151
  O       1.780455      2.307558      0.018766
  O       0.616111      1.057024      1.449624
  C       1.183666      2.130407      1.114628
  C       1.174192      3.267037      2.089761
  H       1.048473      4.216791      1.574690
  H       2.138341      3.302673      2.600049
  H       0.396477      3.139917      2.837026
  H       3.167157     -1.841509      1.394819
  H       2.041655     -2.934077     -0.821324
39
Coordinates from ORCA-job reaction4-IEIP_ts_guess_scan_13-13_orca E -1288.405528862925
  Ir      0.612143     -0.747631      0.399497
  C       0.147805     -2.859248      0.349197
  C      -0.122248     -2.425152      1.696838
  C       2.119467     -2.066569      1.251952
  C       1.529436     -2.673917      0.097520
  C       1.086827     -1.950664      2.233644
  N      -1.081666      0.100575     -0.507007
  C      -2.355194      0.264646      0.208563
  C      -3.149757      1.488898     -0.223477
  H      -3.984785      1.626764      0.461466
  H      -3.578699      1.386746     -1.221235
  H      -2.546870      2.396792     -0.192465
  C      -3.178898     -1.011192      0.073853
  H      -2.078104      0.395334      1.256002
  H      -4.083578     -0.936889      0.676039
  H      -3.479345     -1.176178     -0.961637
  H      -2.630368     -1.889344      0.410776
  C      -0.930778      0.501539     -1.717417
  C       0.382538      0.337015     -2.254075
  H      -1.739753      0.958529     -2.277765
  C       1.381716     -0.039135     -1.355227
  C       2.610726     -0.227141     -2.061325
  S       0.921064      0.479540     -3.859261
  C       2.502918      0.023939     -3.397748
  H       1.672316      1.197561     -0.681653
  H       3.548075     -0.486867     -1.590643
  H       3.285369     -0.021515     -4.140058
  H      -0.559199     -3.311395     -0.330897
  H      -1.068489     -2.478034      2.212786
  H       1.204646     -1.502478      3.210058
  O       1.782261      2.306644      0.014905
  O       0.619505      1.056957      1.445808
  C       1.185873      2.129977      1.110609
  C       1.176835      3.268005      2.084591
  H       1.050742      4.217173      1.568588
  H       2.141277      3.304263      2.594281
  H       0.399644      3.141791      2.832585
  H       3.164621     -1.843370      1.399937
  H       2.041298     -2.936779     -0.816864
39
Coordinates from ORCA-job reaction4-IEIP_ts_guess_scan_13-13_orca E -1288.405548357398
  Ir      0.611700     -0.750477      0.399671
  C       0.147425     -2.860689      0.349618
  C      -0.125376     -2.425459      1.696549
  C       2.117383     -2.067205      1.255935
  C       1.529880     -2.675582      0.100761
  C       1.082708     -1.950457      2.235834
  N      -1.081821      0.099667     -0.507058
  C      -2.355333      0.262602      0.209287
  C      -3.150330      1.487186     -0.220895
  H      -3.984718      1.623892      0.465080
  H      -3.580290      1.386221     -1.218349
  H      -2.547720      2.395245     -0.189236
  C      -3.178901     -1.013107      0.072746
  H      -2.078103      0.392152      1.256820
  H      -4.083759     -0.939385      0.674746
  H      -3.479064     -1.176798     -0.963024
  H      -2.630723     -1.891809      0.408696
  C      -0.930896      0.503791     -1.715943
  C       0.382429      0.338743     -2.251742
  H      -1.738973      0.963239     -2.275548
  C       1.381674     -0.041162     -1.354545
  C       2.610714     -0.226354     -2.061011
  S       0.922183      0.489668     -3.855912
  C       2.503162      0.030435     -3.396628
  H       1.674807      1.196131     -0.686172
  H       3.547632     -0.489849     -1.591605
  H       3.285637     -0.012210     -4.139082
  H      -0.558106     -3.313487     -0.331579
  H      -1.072948     -2.477414      2.210147
  H       1.198623     -1.501462      3.212078
  O       1.783310      2.305403      0.010313
  O       0.622762      1.056492      1.442386
  C       1.188204      2.129523      1.106294
  C       1.179664      3.268529      2.079497
  H       1.052593      4.217138      1.562727
  H       2.144657      3.305525      2.588067
  H       0.403416      3.142851      2.828572
  H       3.162208     -1.843576      1.405707
  H       2.043659     -2.938758     -0.812461
39
Coordinates from ORCA-job reaction4-IEIP_ts_guess_scan_13-13_orca E -1288.405562406235
  Ir      0.611306     -0.752940      0.399652
  C       0.147996     -2.862563      0.349426
  C      -0.128316     -2.426241      1.695508
  C       2.115374     -2.067347      1.260298
  C       1.531251     -2.677185      0.104229
  C       1.078044     -1.950250      2.237744
  N      -1.082278      0.098843     -0.506529
  C      -2.355594      0.260907      0.210445
  C      -3.150568      1.486138     -0.217900
  H      -3.984571      1.621913      0.468752
  H      -3.581081      1.386613     -1.215264
  H      -2.547963      2.394165     -0.185217
  C      -3.179266     -1.014478      0.071829
  H      -2.078087      0.389065      1.258063
  H      -4.084235     -0.941399      0.673761
  H      -3.479296     -1.176490     -0.964232
  H      -2.631517     -1.893947      0.406437
  C      -0.931220      0.505666     -1.714497
  C       0.382411      0.340367     -2.249930
  H      -1.738496      0.967180     -2.273508
  C       1.381670     -0.042281     -1.353850
  C       2.610595     -0.225600     -2.061027
  S       0.922516      0.496583     -3.853539
  C       2.503227      0.035897     -3.395896
  H       1.677003      1.195656     -0.691072
  H       3.547385     -0.491333     -1.592634
  H       3.285754     -0.004249     -4.138433
  H      -0.555459     -3.316633     -0.333057
  H      -1.077328     -2.477915      2.206480
  H       1.191290     -1.500611      3.213984
  O       1.784470      2.305044      0.005388
  O       0.625733      1.056108      1.439011
  C       1.190465      2.129329      1.101846
  C       1.182216      3.268643      2.074782
  H       1.053988      4.216928      1.557695
  H       2.147752      3.306300      2.582262
  H       0.406880      3.142886      2.824779
  H       3.159701     -1.842911      1.412407
  H       2.047618     -2.940668     -0.807449
39
Coordinates from ORCA-job reaction4-IEIP_ts_guess_scan_13-13_orca E -1288.405574445221
  Ir      0.611116     -0.754832      0.399472
  C       0.149815     -2.864696      0.348766
  C      -0.131032     -2.427556      1.693863
  C       2.113513     -2.066754      1.265496
  C       1.533869     -2.678446      0.108285
  C       1.072752     -1.950020      2.239734
  N      -1.082908      0.098259     -0.505642
  C      -2.356042      0.259450      0.211711
  C      -3.150702      1.485653     -0.214428
  H      -3.984641      1.620385      0.472525
  H      -3.581238      1.388072     -1.211968
  H      -2.547926      2.393502     -0.180028
  C      -3.180006     -1.015448      0.070505
  H      -2.078281      0.385687      1.259494
  H      -4.084971     -0.943350      0.672582
  H      -3.480107     -1.175132     -0.965890
  H      -2.632612     -1.895897      0.403100
  C      -0.931740      0.507313     -1.713052
  C       0.382194      0.342070     -2.248736
  H      -1.738456      0.970440     -2.271480
  C       1.381467     -0.042693     -1.353435
  C       2.610080     -0.225172     -2.061730
  S       0.921834      0.501347     -3.852121
  C       2.502600      0.039729     -3.395943
  H       1.679103      1.196502     -0.696385
  H       3.546971     -0.492161     -1.594233
  H       3.285017      0.001228     -4.138674
  H      -0.550805     -3.320717     -0.335313
  H      -1.081692     -2.479660      2.201742
  H       1.182371     -1.499906      3.216159
  O       1.785964      2.305640      0.000565
  O       0.628629      1.056042      1.435673
  C       1.192886      2.129460      1.097559
  C       1.184851      3.268513      2.070740
  H       1.055490      4.216772      1.553859
  H       2.150894      3.306641      2.577222
  H       0.410345      3.142166      2.821471
  H       3.157130     -1.841105      1.420681
  H       2.053637     -2.942135     -0.801405
39
Coordinates from ORCA-job reaction4-IEIP_ts_guess_scan_13-13_orca E -1288.405584839896
  Ir      0.611114     -0.755885      0.399149
  C       0.152994     -2.866653      0.347551
  C      -0.133733     -2.429276      1.691533
  C       2.111638     -2.065000      1.271915
  C       1.537880     -2.678812      0.113142
  C       1.066491     -1.949601      2.242065
  N      -1.083593      0.098037     -0.504580
  C      -2.356658      0.258054      0.212897
  C      -3.150883      1.485491     -0.210449
  H      -3.985097      1.618792      0.476450
  H      -3.580928      1.390490     -1.208443
  H      -2.547879      2.393086     -0.173488
  C      -3.180885     -1.016318      0.068391
  H      -2.078794      0.381686      1.260969
  H      -4.085648     -0.945872      0.670973
  H      -3.481368     -1.172850     -0.968372
  H      -2.633500     -1.897895      0.398010
  C      -0.932553      0.508711     -1.711654
  C       0.381463      0.343808     -2.248268
  H      -1.739124      0.972855     -2.269433
  C       1.380805     -0.042597     -1.353580
  C       2.608869     -0.225385     -2.063342
  S       0.919875      0.504227     -3.851723
  C       2.500913      0.041548     -3.397018
  H       1.681031      1.198797     -0.702071
  H       3.546008     -0.493026     -1.596675
  H       3.282977      0.003651     -4.140149
  H      -0.543844     -3.325227     -0.338637
  H      -1.086381     -2.482535      2.195555
  H       1.171287     -1.499197      3.218877
  O       1.788054      2.307024     -0.003697
  O       0.631465      1.056519      1.432421
  C       1.195669      2.129943      1.093766
  C       1.188198      3.268278      2.067704
  H       1.058114      4.216878      1.551593
  H       2.154704      3.306352      2.573319
  H       0.414376      3.141132      2.818982
  H       3.154283     -1.837667      1.431131
  H       2.062031     -2.942374     -0.794072
39
Coordinates from ORCA-job reaction4-IEIP_ts_guess_scan_13-13_orca E -1288.405592924322
  Ir      0.611288     -0.755879      0.398751
  C       0.157975     -2.868018      0.345410
  C      -0.136155     -2.431341      1.688198
  C       2.110003     -2.061557      1.279459
  C       1.543707     -2.677514      0.118501
  C       1.059513     -1.948850      2.244660
  N      -1.084339      0.097997     -0.503637
  C      -2.357421      0.256697      0.213881
  C      -3.150825      1.485832     -0.205955
  H      -3.985479      1.617473      0.480718
  H      -3.580128      1.394208     -1.204578
  H      -2.547286      2.392925     -0.165699
  C      -3.182172     -1.016914      0.065351
  H      -2.079594      0.376935      1.262366
  H      -4.086380     -0.948663      0.669010
  H      -3.483620     -1.169300     -0.971758
  H      -2.634549     -1.899904      0.390811
  C      -0.933892      0.509234     -1.710654
  C       0.379918      0.344873     -2.248668
  H      -1.740848      0.973491     -2.267817
  C       1.379565     -0.042046     -1.354377
  C       2.606875     -0.226266     -2.065708
  S       0.916458      0.504056     -3.852561
  C       2.497984      0.040500     -3.399172
  H       1.681917      1.202183     -0.707533
  H       3.544392     -0.493774     -1.599686
  H       3.279387      0.001892     -4.142952
  H      -0.534051     -3.329587     -0.343602
  H      -1.091214     -2.486588      2.187441
  H       1.158167     -1.498396      3.222083
  O       1.790408      2.308704     -0.006685
  O       0.633715      1.057540      1.429703
  C       1.198510      2.130644      1.091106
  C       1.192350      3.267975      2.066191
  H       1.062296      4.217262      1.551313
  H       2.159271      3.305175      2.571091
  H       0.419022      3.140210      2.817859
  H       3.151344     -1.831867      1.443727
  H       2.073261     -2.940153     -0.785846
39
Coordinates from ORCA-job reaction4-IEIP_ts_guess_scan_13-13_orca E -1288.405599426144
  Ir      0.611507     -0.754844      0.398361
  C       0.165259     -2.868586      0.341983
  C      -0.138534     -2.433872      1.683431
  C       2.108437     -2.055871      1.288842
  C       1.551951     -2.673941      0.124712
  C       1.051204     -1.947668      2.247815
  N      -1.085272      0.097775     -0.502974
  C      -2.358399      0.254979      0.214719
  C      -3.150285      1.486669     -0.200304
  H      -3.985339      1.616382      0.486236
  H      -3.578904      1.399780     -1.199641
  H      -2.545621      2.392802     -0.155813
  C      -3.184216     -1.017374      0.060922
  H      -2.080709      0.370552      1.263762
  H      -4.087345     -0.951979      0.666488
  H      -3.487513     -1.164015     -0.976488
  H      -2.636227     -1.902343      0.380424
  C      -0.936083      0.508390     -1.710241
  C       0.377226      0.344700     -2.249957
  H      -1.744010      0.971726     -2.266840
  C       1.377520     -0.041447     -1.355936
  C       2.603945     -0.227783     -2.068738
  S       0.911490      0.500680     -3.854626
  C       2.493687      0.036735     -3.402349
  H       1.681086      1.206291     -0.712941
  H       3.541949     -0.494430     -1.603169
  H       3.274161     -0.003562     -4.147007
  H      -0.520460     -3.333595     -0.350977
  H      -1.096710     -2.492041      2.176356
  H       1.141818     -1.497447      3.226114
  O       1.792970      2.310224     -0.008554
  O       0.635213      1.059252      1.427535
  C       1.201515      2.131526      1.089518
  C       1.198055      3.267770      2.065928
  H       1.069063      4.218014      1.552550
  H       2.165445      3.302948      2.570088
  H       0.425132      3.140071      2.818026
  H       3.147978     -1.822855      1.459684
  H       2.088387     -2.934422     -0.776201
39
Coordinates from ORCA-job reaction4-IEIP_ts_guess_scan_13-13_orca E -1288.405603969310
  Ir      0.611580     -0.753115      0.398174
  C       0.173874     -2.868156      0.337684
  C      -0.140623     -2.436533      1.677826
  C       2.107065     -2.048649      1.298980
  C       1.561550     -2.668351      0.130990
  C       1.042585     -1.946243      2.251227
  N      -1.086405      0.096880     -0.502791
  C      -2.359515      0.252745      0.215384
  C      -3.148999      1.487861     -0.193839
  H      -3.984120      1.615816      0.492949
  H      -3.577416      1.406797     -1.193753
  H      -2.542436      2.392463     -0.144744
  C      -3.187165     -1.017710      0.055486
  H      -2.081980      0.362749      1.265040
  H      -4.088771     -0.955301      0.663614
  H      -3.493095     -1.157436     -0.982116
  H      -2.639036     -1.905214      0.367770
  C      -0.939056      0.505700     -1.710659
  C       0.373635      0.342661     -2.251844
  H      -1.748382      0.967127     -2.266899
  C       1.374898     -0.041477     -1.358010
  C       2.600628     -0.229412     -2.071684
  S       0.905990      0.494901     -3.857401
  C       2.488893      0.031649     -3.405745
  H       1.677929      1.209723     -0.717415
  H       3.539141     -0.494635     -1.606313
  H       3.268446     -0.010396     -4.151270
  H      -0.504840     -3.336382     -0.359964
  H      -1.102285     -2.498042      2.163540
  H       1.124310     -1.496564      3.230543
  O       1.795096      2.310809     -0.009440
  O       0.635501      1.061462      1.426266
  C       1.204193      2.132381      1.089000
  C       1.204933      3.267870      2.066390
  H       1.078020      4.219032      1.554228
  H       2.172885      3.299992      2.569686
  H       0.432405      3.141421      2.819128
  H       3.144498     -1.811734      1.477127
  H       2.105442     -2.925500     -0.766405
39
Coordinates from ORCA-job reaction4-IEIP_ts_guess_scan_13-13_orca E -1288.405607506379
  Ir      0.611366     -0.751506      0.398329
  C       0.181572     -2.867098      0.333735
  C      -0.142291     -2.438728      1.672830
  C       2.105920     -2.041896      1.307957
  C       1.570123     -2.662473      0.136301
  C       1.035239     -1.944957      2.254353
  N      -1.087621      0.095102     -0.502968
  C      -2.360602      0.250098      0.215944
  C      -3.147112      1.488974     -0.187546
  H      -3.981850      1.615800      0.499938
  H      -3.575961      1.413796     -1.187738
  H      -2.538131      2.391693     -0.134392
  C      -3.190637     -1.018042      0.050137
  H      -2.083165      0.354667      1.266130
  H      -4.090715     -0.957996      0.660760
  H      -3.499263     -1.150999     -0.987558
  H      -2.642926     -1.908268      0.355500
  C      -0.942183      0.501650     -1.711654
  C       0.370071      0.339115     -2.253578
  H      -1.752885      0.960782     -2.267846
  C       1.372394     -0.042684     -1.359986
  C       2.597940     -0.230342     -2.073679
  S       0.901647      0.489484     -3.859761
  C       2.485098      0.028116     -3.408197
  H       1.673150      1.211072     -0.720388
  H       3.536885     -0.494097     -1.608355
  H       3.264118     -0.014394     -4.154259
  H      -0.491010     -3.337578     -0.368307
  H      -1.107099     -2.503000      2.151948
  H       1.109246     -1.496003      3.234594
  O       1.796231      2.310103     -0.010227
  O       0.634759      1.063654      1.425755
  C       1.206117      2.132984      1.088798
  C       1.211753      3.268342      2.066398
  H       1.087269      4.220024      1.554658
  H       2.180348      3.297167      2.568655
  H       0.439726      3.144198      2.820062
  H       3.141422     -1.801492      1.492582
  H       2.120427     -2.916076     -0.758186
39
Coordinates from ORCA-job reaction4-IEIP_ts_guess_scan_13-13_orca E -1288.405610890718
  Ir      0.610995     -0.750874      0.398719
  C       0.185694     -2.866366      0.331712
  C      -0.143458     -2.439814      1.670202
  C       2.105088     -2.038191      1.313443
  C       1.574840     -2.659069      0.139605
  C       1.030898     -1.944191      2.256432
  N      -1.088567      0.093159     -0.503071
  C      -2.361397      0.247819      0.216424
  C      -3.145508      1.489475     -0.183233
  H      -3.979726      1.615961      0.504975
  H      -3.574971      1.418347     -1.183459
  H      -2.534566      2.390700     -0.127603
  C      -3.193386     -1.018461      0.046570
  H      -2.083999      0.348770      1.266927
  H      -4.092640     -0.959535      0.658534
  H      -3.503552     -1.146958     -0.991223
  H      -2.646516     -1.910701      0.347667
  C      -0.944297      0.498218     -1.712416
  C       0.367893      0.335981     -2.254306
  H      -1.755767      0.955746     -2.268809
  C       1.370948     -0.044545     -1.361063
  C       2.596787     -0.230091     -2.074308
  S       0.899801      0.487605     -3.860595
  C       2.483516      0.028324     -3.408938
  H       1.669198      1.210377     -0.722023
  H       3.536010     -0.493018     -1.609102
  H       3.262551     -0.012971     -4.155063
  H      -0.483440     -3.337795     -0.372975
  H      -1.110162     -2.505307      2.145353
  H       1.100641     -1.495805      3.237229
  O       1.796401      2.308832     -0.011696
  O       0.634011      1.065052      1.425425
  C       1.207164      2.133216      1.088009
  C       1.216460      3.268862      2.065237
  H       1.093552      4.220585      1.553221
  H       2.185632      3.295495      2.566497
  H       0.445006      3.146840      2.819847
  H       3.139479     -1.795904      1.501836
  H       2.128755     -2.910578     -0.753239
39
Coordinates from ORCA-job reaction4-IEIP_ts_guess_scan_13-13_orca E -1288.405613911705
  Ir      0.610762     -0.751006      0.399030
  C       0.186563     -2.866335      0.331467
  C      -0.144178     -2.439968      1.669682
  C       2.104591     -2.037444      1.315511
  C       1.575988     -2.658483      0.141063
  C       1.029263     -1.943882      2.257326
  N      -1.089005      0.092023     -0.502915
  C      -2.361776      0.246593      0.216752
  C      -3.144792      1.489443     -0.181421
  H      -3.978741      1.615976      0.507121
  H      -3.574531      1.419945     -1.181641
  H      -2.532955      2.389994     -0.124849
  C      -3.194631     -1.018841      0.045166
  H      -2.084400      0.346115      1.267378
  H      -4.093812     -0.960135      0.657274
  H      -3.505026     -1.145677     -0.992759
  H      -2.648425     -1.911960      0.344935
  C      -0.945064      0.496647     -1.712566
  C       0.367243      0.334599     -2.254221
  H      -1.756711      0.953548     -2.269191
  C       1.370580     -0.045825     -1.361271
  C       2.596753     -0.229304     -2.074242
  S       0.899643      0.488528     -3.860338
  C       2.483450      0.030471     -3.408707
  H       1.667473      1.209429     -0.722978
  H       3.536128     -0.492032     -1.609248
  H       3.262724     -0.009317     -4.154672
  H      -0.481562     -3.337961     -0.374042
  H      -1.111537     -2.505498      2.143514
  H       1.097824     -1.495756      3.238318
  O       1.796248      2.308129     -0.013315
  O       0.633922      1.065545      1.424977
  C       1.207665      2.133257      1.086872
  C       1.218497      3.269094      2.063819
  H       1.096004      4.220724      1.551530
  H       2.188021      3.294964      2.564439
  H       0.447472      3.148000      2.819014
  H       3.138672     -1.794770      1.505107
  H       2.131028     -2.909640     -0.751178
