39
Generated by autodE on: 2023-08-14. E = -1288.395118 Ha
Ir    0.57712  -0.73327   0.49355
C     0.01956  -2.81149   0.37328
C     0.08139  -2.36499   1.74310
C     2.18191  -2.14861   0.82297
C     1.29351  -2.65111  -0.20105
C     1.44561  -2.00963   2.01263
N    -1.04094   0.15197  -0.51110
C    -2.32042   0.46773   0.14540
C    -3.12309   1.54296  -0.56995
H    -3.95617   1.84078   0.06531
H    -3.55812   1.19706  -1.50895
H    -2.52896   2.43624  -0.76501
C    -3.13213  -0.80864   0.32999
H    -2.04053   0.84725   1.12961
H    -4.05387  -0.58146   0.86356
H    -3.40347  -1.24814  -0.63079
H    -2.59655  -1.55483   0.91509
C    -0.83999   0.36427  -1.75562
C     0.50673   0.17066  -2.23901
H    -1.63054   0.71237  -2.41448
C     1.61044   0.47723  -1.45288
C     2.81163   0.10294  -2.11833
S     0.92902  -0.50160  -3.75163
C     2.59604  -0.42722  -3.35314
H     1.53858   1.37091  -0.62516
H     3.80008   0.27336  -1.71689
H     3.33159  -0.76019  -4.06983
H    -0.86320  -3.16968  -0.13667
H    -0.71912  -2.39822   2.46746
H     1.82008  -1.62085   2.94869
O     1.36955   2.41599   0.24665
O     0.53567   0.92236   1.67786
C     0.94157   2.10165   1.35973
C     0.89740   3.10939   2.47215
H     0.85747   4.12015   2.07535
H     1.80885   3.02089   3.06675
H     0.05675   2.93556   3.14024
H     3.22993  -1.92186   0.69493
H     1.56600  -2.87074  -1.22308
