39
Coordinates from ORCA-job reaction4-IEIP_ts_guess_scan_10-3_orca E -1288.399675442899
  Ir      0.629603     -0.706470      0.412099
  C       0.109910     -2.814286      0.326198
  C       0.061670     -2.356462      1.688496
  C       2.222342     -2.089727      0.911782
  C       1.422996     -2.642576     -0.155486
  C       1.382947     -1.943933      2.039349
  N      -1.048108      0.146888     -0.527296
  C      -2.309081      0.419310      0.179617
  C      -3.097198      1.581498     -0.405583
  H      -3.916074      1.827318      0.269083
  H      -3.549791      1.344129     -1.369325
  H      -2.484177      2.476459     -0.514344
  C      -3.143429     -0.855491      0.235531
  H      -2.007971      0.683827      1.194109
  H      -4.042523     -0.680794      0.824750
  H      -3.454012     -1.168701     -0.762056
  H      -2.601905     -1.677332      0.701522
  C      -0.893684      0.402080     -1.766883
  C       0.436633      0.193148     -2.258760
  H      -1.693568      0.787769     -2.391360
  C       1.494670      0.226721     -1.347422
  C       2.714396     -0.106163     -2.014635
  S       0.909717     -0.227883     -3.831081
  C       2.547277     -0.372897     -3.336959
  H       1.511476      1.199114     -0.624804
  H       3.683280     -0.091998     -1.536938
  H       3.304028     -0.623121     -4.064948
  H      -0.721199     -3.209833     -0.239769
  H      -0.788947     -2.394381      2.352209
  H       1.674929     -1.519565      2.989496
  O       1.428053      2.425845      0.157139
  O       0.549404      0.966962      1.590914
  C       0.970752      2.135572      1.265863
  C       0.907631      3.165914      2.357916
  H       0.879836      4.169509      1.942362
  H       1.806185      3.084404      2.972495
  H       0.052087      3.006823      3.010502
  H       3.278246     -1.869659      0.873135
  H       1.772969     -2.892829     -1.146174
39
Coordinates from ORCA-job reaction4-IEIP_ts_guess_scan_10-3_orca E -1288.399599637760
  Ir      0.625637     -0.698665      0.407459
  C       0.112238     -2.810513      0.328295
  C       0.063113     -2.351697      1.690088
  C       2.221760     -2.077643      0.912387
  C       1.424630     -2.635637     -0.153723
  C       1.381637     -1.932547      2.039272
  N      -1.058612      0.145047     -0.531067
  C      -2.319643      0.416319      0.176337
  C      -3.112259      1.572927     -0.413824
  H      -3.931720      1.818810      0.260090
  H      -3.564350      1.329462     -1.376290
  H      -2.502638      2.469679     -0.527020
  C      -3.149419     -0.861114      0.238869
  H      -2.018671      0.686567      1.189357
  H      -4.048403     -0.687066      0.828442
  H      -3.460141     -1.179811     -0.756944
  H      -2.604344     -1.678951      0.707740
  C      -0.904162      0.394033     -1.776726
  C       0.429835      0.188462     -2.271022
  H      -1.705933      0.773315     -2.402657
  C       1.486374      0.228095     -1.357576
  C       2.708948     -0.101362     -2.022078
  S       0.907140     -0.235964     -3.840974
  C       2.544983     -0.372905     -3.343767
  H       1.501917      1.220707     -0.652805
  H       3.677288     -0.079855     -1.543387
  H       3.304054     -0.621833     -4.069700
  H      -0.717504     -3.210324     -0.236731
  H      -0.786934     -2.392066      2.354307
  H       1.672044     -1.505586      2.988734
  O       1.542424      2.396417      0.207039
  O       0.534922      0.976782      1.589377
  C       1.010864      2.129563      1.288668
  C       0.921989      3.166090      2.372699
  H       0.952768      4.168332      1.954019
  H       1.780920      3.055975      3.037408
  H       0.025818      3.039348      2.975862
  H       3.277186     -1.855385      0.874157
  H       1.775615     -2.887815     -1.143573
39
Coordinates from ORCA-job reaction4-IEIP_ts_guess_scan_10-3_orca E -1288.399416216648
  Ir      0.634262     -0.705952      0.409263
  C       0.107579     -2.818680      0.327888
  C       0.061859     -2.367782      1.692266
  C       2.219921     -2.099132      0.914573
  C       1.420872     -2.649431     -0.153749
  C       1.379630     -1.953822      2.041238
  N      -1.049865      0.150485     -0.518782
  C      -2.310549      0.420029      0.189736
  C      -3.097387      1.584825     -0.392060
  H      -3.918117      1.827170      0.281563
  H      -3.547165      1.351816     -1.358225
  H      -2.484591      2.480655     -0.495119
  C      -3.145250     -0.854733      0.238504
  H      -2.010665      0.679573      1.205867
  H      -4.044364     -0.683220      0.828613
  H      -3.455885     -1.162444     -0.760805
  H      -2.603718     -1.679120      0.699904
  C      -0.887541      0.413012     -1.770141
  C       0.451431      0.205278     -2.272671
  H      -1.687022      0.802151     -2.392837
  C       1.506446      0.212935     -1.354268
  C       2.726402     -0.127129     -2.020009
  S       0.928226     -0.202478     -3.846757
  C       2.562643     -0.375644     -3.345954
  H       1.553403      1.228648     -0.662154
  H       3.693793     -0.125841     -1.538613
  H       3.320290     -0.625846     -4.072790
  H      -0.724188     -3.212573     -0.238395
  H      -0.787690     -2.407628      2.356977
  H       1.671850     -1.532246      2.992534
  O       1.361429      2.428176      0.142548
  O       0.547538      0.968704      1.603165
  C       0.943576      2.140639      1.268931
  C       0.896575      3.177004      2.354902
  H       0.840804      4.177441      1.934355
  H       1.813859      3.113142      2.943210
  H       0.062937      3.008326      3.032624
  H       3.277063     -1.885044      0.879208
  H       1.770979     -2.902077     -1.143802
39
Coordinates from ORCA-job reaction4-IEIP_ts_guess_scan_10-3_orca E -1288.399964541923
  Ir      0.627721     -0.706727      0.411669
  C       0.102822     -2.816821      0.337262
  C       0.056595     -2.358819      1.699123
  C       2.215663     -2.093662      0.919837
  C       1.416120     -2.648716     -0.145657
  C       1.375770     -1.943999      2.046648
  N      -1.052128      0.145094     -0.524263
  C      -2.314103      0.412874      0.181201
  C      -3.103386      1.574470     -0.403587
  H      -3.925223      1.816399      0.268904
  H      -3.551909      1.338174     -1.369507
  H      -2.492488      2.471362     -0.508164
  C      -3.145507     -0.864071      0.232175
  H      -2.015365      0.675334      1.196891
  H      -4.045644     -0.693380      0.821000
  H      -3.454262     -1.174941     -0.766692
  H      -2.602325     -1.685933      0.696172
  C      -0.894584      0.406247     -1.768227
  C       0.439606      0.203396     -2.266906
  H      -1.695511      0.793624     -2.390098
  C       1.495807      0.217330     -1.351183
  C       2.717382     -0.109424     -2.019861
  S       0.916140     -0.196579     -3.842913
  C       2.553447     -0.352076     -3.347061
  H       1.525118      1.209479     -0.638731
  H       3.685107     -0.103993     -1.539513
  H       3.311739     -0.591424     -4.077066
  H      -0.728991     -3.212989     -0.227245
  H      -0.793349     -2.394891      2.363648
  H       1.668190     -1.517579      2.995724
  O       1.447579      2.427850      0.156771
  O       0.550814      0.972968      1.586622
  C       0.981578      2.138104      1.263842
  C       0.918592      3.170272      2.353184
  H       0.897677      4.173411      1.936099
  H       1.813704      3.085054      2.972182
  H       0.058891      3.015835      3.001250
  H       3.272415     -1.877778      0.882330
  H       1.765669     -2.904283     -1.135119
39
Coordinates from ORCA-job reaction4-IEIP_ts_guess_scan_10-3_orca E -1288.400006634992
  Ir      0.628097     -0.707575      0.411958
  C       0.104092     -2.817928      0.339220
  C       0.056152     -2.359970      1.700867
  C       2.215882     -2.093548      0.923563
  C       1.417923     -2.649572     -0.142416
  C       1.374394     -1.943909      2.049279
  N      -1.051944      0.143582     -0.525270
  C      -2.313785      0.412073      0.180536
  C      -3.103000      1.574366     -0.403092
  H      -3.924230      1.816360      0.270096
  H      -3.552421      1.338761     -1.368741
  H      -2.491781      2.471046     -0.507678
  C      -3.146358     -0.864154      0.231863
  H      -2.014489      0.674125      1.196253
  H      -4.046105     -0.692705      0.821083
  H      -3.455795     -1.174647     -0.766908
  H      -2.603749     -1.686491      0.695570
  C      -0.894709      0.405379     -1.769051
  C       0.438798      0.203259     -2.268913
  H      -1.695936      0.793350     -2.390106
  C       1.494761      0.213863     -1.352964
  C       2.716340     -0.109804     -2.022964
  S       0.915849     -0.185827     -3.847277
  C       2.552253     -0.348614     -3.350861
  H       1.526332      1.211207     -0.646265
  H       3.683937     -0.107319     -1.542374
  H       3.310345     -0.586450     -4.081534
  H      -0.726828     -3.214764     -0.226113
  H      -0.794571     -2.395965      2.364380
  H       1.665532     -1.516763      2.998433
  O       1.455263      2.422701      0.160268
  O       0.548583      0.973374      1.586563
  C       0.982454      2.136817      1.265416
  C       0.918312      3.170934      2.353137
  H       0.901850      4.173567      1.934642
  H       1.810849      3.084059      2.975654
  H       0.055742      3.019860      2.998210
  H       3.272686     -1.877682      0.887557
  H       1.768642     -2.905804     -1.131281
39
Coordinates from ORCA-job reaction4-IEIP_ts_guess_scan_10-3_orca E -1288.400045753331
  Ir      0.628143     -0.711658      0.414089
  C       0.102102     -2.821301      0.345609
  C       0.052128     -2.362648      1.706698
  C       2.213392     -2.098004      0.932342
  C       1.417130     -2.654953     -0.134108
  C       1.369455     -1.946303      2.056223
  N      -1.050710      0.140815     -0.525552
  C      -2.312779      0.409081      0.180407
  C      -3.101391      1.573543     -0.399863
  H      -3.922189      1.814261      0.274273
  H      -3.551446      1.340870     -1.365914
  H      -2.489647      2.470138     -0.502258
  C      -3.147045     -0.866207      0.229054
  H      -2.013449      0.668538      1.196844
  H      -4.046605     -0.694848      0.818582
  H      -3.456792     -1.174096     -0.770431
  H      -2.605533     -1.690223      0.690992
  C      -0.893539      0.405727     -1.768708
  C       0.438698      0.204610     -2.270838
  H      -1.695206      0.795526     -2.388066
  C       1.493848      0.204848     -1.353868
  C       2.716131     -0.109804     -2.026976
  S       0.916456     -0.166768     -3.852858
  C       2.553446     -0.329448     -3.358394
  H       1.528615      1.208261     -0.652421
  H       3.683331     -0.113138     -1.545630
  H       3.312276     -0.555686     -4.091955
  H      -0.728015     -3.218188     -0.220875
  H      -0.799976     -2.396581      2.368503
  H       1.659197     -1.517693      3.005160
  O       1.458100      2.418634      0.155842
  O       0.550572      0.973567      1.584555
  C       0.985829      2.135035      1.262172
  C       0.920539      3.173267      2.346186
  H       0.902793      4.174432      1.924251
  H       1.813331      3.089609      2.968774
  H       0.058288      3.023399      2.992011
  H       3.270635     -1.883975      0.898758
  H       1.769258     -2.913448     -1.121870
39
Coordinates from ORCA-job reaction4-IEIP_ts_guess_scan_10-3_orca E -1288.400075457824
  Ir      0.627015     -0.716417      0.417204
  C       0.098838     -2.824723      0.354080
  C       0.045167     -2.364430      1.714289
  C       2.209070     -2.102318      0.945308
  C       1.415786     -2.660909     -0.122176
  C       1.361190     -1.947568      2.066223
  N      -1.049593      0.136918     -0.525590
  C      -2.312337      0.402794      0.180257
  C      -3.100505      1.569898     -0.395389
  H      -3.921524      1.807639      0.279502
  H      -3.550254      1.341544     -1.362619
  H      -2.488705      2.466937     -0.493613
  C      -3.147292     -0.872288      0.222964
  H      -2.013995      0.658079      1.198050
  H      -4.047307     -0.702845      0.812322
  H      -3.456214     -1.175836     -0.778111
  H      -2.606629     -1.698526      0.681922
  C      -0.892626      0.407850     -1.767252
  C       0.438252      0.210110     -2.272073
  H      -1.694883      0.801102     -2.383729
  C       1.492392      0.194262     -1.353923
  C       2.715402     -0.109051     -2.031211
  S       0.918492     -0.126971     -3.860538
  C       2.553757     -0.306213     -3.366304
  H       1.530692      1.201386     -0.653903
  H       3.681824     -0.124498     -1.548563
  H       3.312778     -0.521985     -4.102809
  H      -0.729737     -3.221996     -0.214408
  H      -0.809254     -2.395399      2.373196
  H       1.648423     -1.516537      3.014842
  O       1.459854      2.417335      0.145918
  O       0.553788      0.975210      1.579660
  C       0.987537      2.135398      1.253338
  C       0.928727      3.176154      2.335490
  H       0.909526      4.176431      1.911579
  H       1.824726      3.093146      2.953560
  H       0.069750      3.028174      2.986080
  H       3.266813     -1.890298      0.915419
  H       1.770428     -2.922369     -1.108252
39
Coordinates from ORCA-job reaction4-IEIP_ts_guess_scan_10-3_orca E -1288.400085428893
  Ir      0.626959     -0.717656      0.418170
  C       0.097584     -2.825179      0.355216
  C       0.042113     -2.364196      1.715241
  C       2.207533     -2.104002      0.949556
  C       1.415511     -2.662546     -0.118903
  C       1.357937     -1.948090      2.069082
  N      -1.048803      0.136567     -0.524709
  C      -2.311663      0.400912      0.181459
  C      -3.099708      1.568954     -0.392466
  H      -3.920844      1.805474      0.282723
  H      -3.549237      1.342246     -1.360192
  H      -2.487941      2.466179     -0.489095
  C      -3.146405     -0.874392      0.221244
  H      -2.013791      0.654482      1.199788
  H      -4.046787     -0.706272      0.810434
  H      -3.454727     -1.176033     -0.780591
  H      -2.605877     -1.701506      0.678771
  C      -0.892271      0.409746     -1.765983
  C       0.438025      0.212037     -2.271899
  H      -1.694842      0.803972     -2.381402
  C       1.492444      0.190504     -1.354197
  C       2.715085     -0.110532     -2.033052
  S       0.917722     -0.118234     -3.861973
  C       2.553292     -0.298406     -3.369503
  H       1.532331      1.196666     -0.652038
  H       3.681520     -0.129942     -1.550587
  H       3.312149     -0.509740     -4.107469
  H      -0.730245     -3.222247     -0.214492
  H      -0.813425     -2.394070      2.372752
  H       1.644044     -1.516623      3.017842
  O       1.465792      2.415206      0.144202
  O       0.555747      0.975477      1.578498
  C       0.992317      2.134566      1.251567
  C       0.929080      3.177936      2.330815
  H       0.909267      4.177065      1.904207
  H       1.823789      3.097964      2.951113
  H       0.068789      3.030235      2.979683
  H       3.265475     -1.892747      0.921293
  H       1.771432     -2.924588     -1.104368
39
Coordinates from ORCA-job reaction4-IEIP_ts_guess_scan_10-3_orca E -1288.400093043107
  Ir      0.626965     -0.717832      0.418953
  C       0.097858     -2.825024      0.354807
  C       0.039058     -2.363285      1.714659
  C       2.206605     -2.103952      0.954484
  C       1.417084     -2.662683     -0.115783
  C       1.354246     -1.947550      2.071866
  N      -1.048461      0.136587     -0.523933
  C      -2.311558      0.399187      0.182555
  C      -3.099758      1.568026     -0.389655
  H      -3.920990      1.803273      0.285877
  H      -3.549119      1.342821     -1.357806
  H      -2.488163      2.465512     -0.484834
  C      -3.145908     -0.876449      0.219280
  H      -2.014267      0.651130      1.201423
  H      -4.046797     -0.709842      0.808153
  H      -3.453432     -1.176208     -0.783361
  H      -2.605514     -1.704401      0.675405
  C      -0.892378      0.411482     -1.765026
  C       0.437455      0.213596     -2.271830
  H      -1.695291      0.806163     -2.379636
  C       1.492370      0.187341     -1.354980
  C       2.714388     -0.112525     -2.035111
  S       0.916159     -0.112858     -3.863166
  C       2.552044     -0.293298     -3.372551
  H       1.533972      1.191748     -0.649775
  H       3.680983     -0.134989     -1.553122
  H       3.310597     -0.501373     -4.111760
  H      -0.728402     -3.222456     -0.216901
  H      -0.818102     -2.392852      2.370090
  H       1.638127     -1.515772      3.021153
  O       1.471307      2.412461      0.143445
  O       0.556023      0.976115      1.578050
  C       0.993913      2.134618      1.249817
  C       0.930896      3.179316      2.327621
  H       0.912056      4.177817      1.899481
  H       1.825298      3.099635      2.948383
  H       0.070146      3.033144      2.976170
  H       3.264613     -1.892707      0.928705
  H       1.775349     -2.924725     -1.100405
39
Coordinates from ORCA-job reaction4-IEIP_ts_guess_scan_10-3_orca E -1288.400103872742
  Ir      0.627696     -0.717805      0.419789
  C       0.099910     -2.824931      0.352589
  C       0.035223     -2.362617      1.712309
  C       2.206196     -2.103394      0.961669
  C       1.421215     -2.662266     -0.111894
  C       1.349029     -1.947167      2.075445
  N      -1.047630      0.136801     -0.522521
  C      -2.310815      0.397284      0.184789
  C      -3.098938      1.567933     -0.384069
  H      -3.919962      1.801426      0.292329
  H      -3.548508      1.345553     -1.352769
  H      -2.487200      2.465554     -0.476949
  C      -3.145309     -0.878363      0.216782
  H      -2.013954      0.646274      1.204472
  H      -4.046668     -0.713741      0.805529
  H      -3.452152     -1.174739     -0.787072
  H      -2.605456     -1.708063      0.670312
  C      -0.892428      0.413996     -1.763409
  C       0.436608      0.216100     -2.271860
  H      -1.695880      0.809759     -2.376532
  C       1.492464      0.182984     -1.356684
  C       2.713134     -0.116161     -2.038906
  S       0.913630     -0.102521     -3.865625
  C       2.548949     -0.290497     -3.377123
  H       1.537451      1.184773     -0.646832
  H       3.680104     -0.143659     -1.557960
  H       3.306415     -0.497169     -4.117840
  H      -0.723508     -3.223128     -0.222647
  H      -0.824599     -2.392569      2.364257
  H       1.628866     -1.515344      3.025914
  O       1.480901      2.407456      0.143809
  O       0.556550      0.976549      1.578101
  C       0.998546      2.133587      1.248953
  C       0.930175      3.181745      2.322834
  H       0.911280      4.178653      1.890938
  H       1.822746      3.105734      2.946630
  H       0.067460      3.036567      2.968940
  H       3.264217     -1.891748      0.940230
  H       1.783612     -2.923658     -1.095188
39
Coordinates from ORCA-job reaction4-IEIP_ts_guess_scan_10-3_orca E -1288.400114292339
  Ir      0.628285     -0.717372      0.420593
  C       0.103167     -2.825187      0.350200
  C       0.031479     -2.362719      1.709734
  C       2.205961     -2.101683      0.969844
  C       1.426640     -2.661255     -0.107371
  C       1.343093     -1.946527      2.079471
  N      -1.047264      0.136653     -0.521422
  C      -2.310565      0.395568      0.186337
  C      -3.098437      1.568015     -0.379380
  H      -3.919331      1.799949      0.297691
  H      -3.548109      1.348309     -1.348639
  H      -2.486453      2.465703     -0.470006
  C      -3.145534     -0.879865      0.214137
  H      -2.014060      0.641776      1.206788
  H      -4.047140     -0.716900      0.802978
  H      -3.452050     -1.172950     -0.790790
  H      -2.606247     -1.711343      0.665098
  C      -0.892895      0.415076     -1.762271
  C       0.435249      0.217548     -2.272464
  H      -1.697042      0.811402     -2.374129
  C       1.491825      0.178880     -1.358770
  C       2.711335     -0.119137     -2.043023
  S       0.910548     -0.094448     -3.868376
  C       2.545475     -0.288067     -3.381887
  H       1.540497      1.179586     -0.646059
  H       3.678734     -0.150127     -1.563181
  H       3.302063     -0.493161     -4.123935
  H      -0.716810     -3.224734     -0.228982
  H      -0.831249     -2.394011      2.357783
  H       1.617893     -1.514667      3.031401
  O       1.488690      2.402585      0.144419
  O       0.556145      0.977340      1.578559
  C       1.001315      2.132909      1.248331
  C       0.931557      3.183703      2.319491
  H       0.912742      4.179471      1.884921
  H       1.823733      3.109787      2.944084
  H       0.068316      3.039905      2.965168
  H       3.263877     -1.889104      0.953503
  H       1.793938     -2.921715     -1.089106
39
Coordinates from ORCA-job reaction4-IEIP_ts_guess_scan_10-3_orca E -1288.400124191093
  Ir      0.628708     -0.716628      0.421420
  C       0.108043     -2.825879      0.346917
  C       0.027004     -2.363785      1.706235
  C       2.205679     -2.098587      0.980292
  C       1.434174     -2.659533     -0.101608
  C       1.335199     -1.945643      2.084479
  N      -1.047515      0.136187     -0.520262
  C      -2.310990      0.393560      0.187765
  C      -3.098280      1.568257     -0.374273
  H      -3.919174      1.798392      0.303384
  H      -3.547864      1.351840     -1.344308
  H      -2.485863      2.465940     -0.461988
  C      -3.146737     -0.881481      0.210774
  H      -2.014906      0.636378      1.209153
  H      -4.048303     -0.720471      0.800221
  H      -3.453392     -1.170400     -0.795328
  H      -2.607933     -1.715176      0.658247
  C      -0.894075      0.415210     -1.761184
  C       0.433043      0.218420     -2.273404
  H      -1.699133      0.811673     -2.371805
  C       1.490393      0.174763     -1.361281
  C       2.708789     -0.121860     -2.047751
  S       0.906428     -0.086992     -3.871457
  C       2.541123     -0.285622     -3.387184
  H       1.543561      1.174882     -0.646171
  H       3.676721     -0.155576     -1.569183
  H       3.296858     -0.488976     -4.130575
  H      -0.707298     -3.227459     -0.237360
  H      -0.839410     -2.397612      2.349223
  H       1.603007     -1.513728      3.038392
  O       1.497760      2.397639      0.145052
  O       0.555832      0.978658      1.578837
  C       1.005246      2.132220      1.247697
  C       0.935258      3.185742      2.316222
  H       0.915828      4.180389      1.879062
  H       1.827873      3.114138      2.940450
  H       0.072351      3.043195      2.962583
  H       3.263336     -1.884404      0.970741
  H       1.808029     -2.918481     -1.081285
39
Coordinates from ORCA-job reaction4-IEIP_ts_guess_scan_10-3_orca E -1288.400130674706
  Ir      0.628700     -0.716022      0.421873
  C       0.112712     -2.826694      0.343465
  C       0.023090     -2.365433      1.702668
  C       2.205284     -2.095208      0.989299
  C       1.441146     -2.657655     -0.096819
  C       1.327849     -1.944859      2.088575
  N      -1.048231      0.135611     -0.519384
  C      -2.311761      0.391963      0.188837
  C      -3.098291      1.568569     -0.370329
  H      -3.919277      1.797357      0.307657
  H      -3.547668      1.354914     -1.341070
  H      -2.485352      2.466132     -0.455556
  C      -3.148214     -0.882704      0.208156
  H      -2.015940      0.631998      1.210966
  H      -4.049354     -0.723365      0.798706
  H      -3.455599     -1.167992     -0.798767
  H      -2.609471     -1.718267      0.652255
  C      -0.895612      0.414579     -1.760422
  C       0.430767      0.218407     -2.274127
  H      -1.701449      0.810714     -2.370286
  C       1.488770      0.172325     -1.363127
  C       2.706486     -0.123316     -2.051148
  S       0.902700     -0.083452     -3.873413
  C       2.537539     -0.284093     -3.390850
  H       1.545455      1.172110     -0.646701
  H       3.674843     -0.158077     -1.573521
  H       3.292719     -0.486197     -4.135143
  H      -0.698359     -3.230138     -0.245432
  H      -0.846643     -2.401954      2.341012
  H       1.589052     -1.512863      3.044297
  O       1.504728      2.394705      0.145048
  O       0.555872      0.979966      1.578368
  C       1.008918      2.131865      1.246861
  C       0.939760      3.187086      2.313868
  H       0.918833      4.181033      1.875141
  H       1.833636      3.117448      2.936521
  H       0.078086      3.044920      2.961918
  H       3.262615     -1.879310      0.985987
  H       1.821031     -2.914911     -1.074641
39
Coordinates from ORCA-job reaction4-IEIP_ts_guess_scan_10-3_orca E -1288.400139254399
  Ir      0.628398     -0.715411      0.422311
  C       0.121343     -2.828396      0.336562
  C       0.016323     -2.369176      1.695655
  C       2.204520     -2.088890      1.004687
  C       1.453773     -2.654117     -0.088935
  C       1.314703     -1.943734      2.095227
  N      -1.049863      0.134453     -0.518003
  C      -2.313281      0.389410      0.190797
  C      -3.098135      1.569437     -0.363526
  H      -3.919256      1.796168      0.314978
  H      -3.547172      1.360677     -1.335482
  H      -2.484016      2.466576     -0.444461
  C      -3.151128     -0.884466      0.204109
  H      -2.017680      0.624678      1.214099
  H      -4.051002     -0.727980      0.797340
  H      -3.460614     -1.163267     -0.803996
  H      -2.612160     -1.723318      0.641764
  C      -0.898760      0.413047     -1.759247
  C       0.426578      0.217603     -2.275105
  H      -1.705819      0.808356     -2.368112
  C       1.485726      0.169408     -1.365757
  C       2.702516     -0.124994     -2.056056
  S       0.896219     -0.080736     -3.875783
  C       2.531654     -0.282500     -3.395941
  H       1.547847      1.168680     -0.648009
  H       3.671544     -0.160369     -1.579838
  H       3.285989     -0.482901     -4.141550
  H      -0.682011     -3.235035     -0.260616
  H      -0.859362     -2.410615      2.325506
  H       1.563923     -1.511560      3.054086
  O       1.515462      2.391293      0.144098
  O       0.556453      0.982279      1.576442
  C       1.015291      2.131640      1.244777
  C       0.948073      3.189027      2.309924
  H       0.923018      4.181983      1.869101
  H       1.845078      3.123238      2.928498
  H       0.089605      3.046389      2.962044
  H       3.261131     -1.869746      1.012586
  H       1.844462     -2.907939     -1.063434
39
Coordinates from ORCA-job reaction4-IEIP_ts_guess_scan_10-3_orca E -1288.400144949007
  Ir      0.628025     -0.715381      0.422337
  C       0.130665     -2.830276      0.328396
  C       0.009482     -2.373731      1.687442
  C       2.203682     -2.082329      1.020036
  C       1.467160     -2.650284     -0.081453
  C       1.300995     -1.943010      2.101389
  N      -1.051634      0.133247     -0.516617
  C      -2.314660      0.387080      0.193218
  C      -3.097496      1.570785     -0.356081
  H      -3.918640      1.795648      0.323025
  H      -3.546316      1.367262     -1.329240
  H      -2.481890      2.467272     -0.432632
  C      -3.154143     -0.885804      0.200635
  H      -2.018953      0.617465      1.217583
  H      -4.052219     -0.732204      0.797327
  H      -3.466586     -1.157713     -0.808442
  H      -2.614734     -1.728138      0.631066
  C      -0.902213      0.411560     -1.758046
  C       0.422355      0.216302     -2.275738
  H      -1.710307      0.806124     -2.366071
  C       1.482747      0.167659     -1.367856
  C       2.698659     -0.126344     -2.060160
  S       0.889717     -0.081096     -3.877162
  C       2.526006     -0.282487     -3.399941
  H       1.549731      1.166553     -0.649889
  H       3.668321     -0.161631     -1.585213
  H       3.279406     -0.481960     -4.146742
  H      -0.664464     -3.240031     -0.277549
  H      -0.872521     -2.420080      2.308068
  H       1.537569     -1.510707      3.063404
  O       1.524902      2.389391      0.142143
  O       0.557589      0.984532      1.573277
  C       1.021396      2.131868      1.241889
  C       0.955881      3.190734      2.305755
  H       0.924773      4.182801      1.863234
  H       1.856860      3.129809      2.919039
  H       0.101642      3.046219      2.962915
  H       3.259401     -1.859796      1.039808
  H       1.869178     -2.900117     -1.052415
39
Coordinates from ORCA-job reaction4-IEIP_ts_guess_scan_10-3_orca E -1288.400146515058
  Ir      0.627996     -0.715962      0.421890
  C       0.137449     -2.831617      0.321655
  C       0.004898     -2.377415      1.680762
  C       2.203146     -2.078174      1.030210
  C       1.476768     -2.647647     -0.076946
  C       1.291461     -1.943152      2.104989
  N      -1.052746      0.132496     -0.515571
  C      -2.315229      0.385769      0.195471
  C      -3.096437      1.572253     -0.350131
  H      -3.917447      1.795973      0.329532
  H      -3.545266      1.372662     -1.324092
  H      -2.479554      2.468110     -0.423592
  C      -3.156112     -0.886215      0.198911
  H      -2.019092      0.612721      1.220448
  H      -4.052562     -0.734519      0.798527
  H      -3.471229     -1.153103     -0.810670
  H      -2.616390     -1.731150      0.623849
  C      -0.904556      0.410969     -1.757070
  C       0.419803      0.215225     -2.275753
  H      -1.713075      0.805444     -2.364578
  C       1.481232      0.167535     -1.368787
  C       2.696436     -0.127264     -2.062311
  S       0.885449     -0.083941     -3.877154
  C       2.522502     -0.284332     -3.401739
  H       1.550804      1.166496     -0.651927
  H       3.666534     -0.162152     -1.588199
  H       3.275009     -0.484164     -4.149345
  H      -0.651739     -3.243356     -0.290639
  H      -0.881736     -2.426679      2.294533
  H       1.519126     -1.510919      3.069185
  O       1.529550      2.389596      0.139805
  O       0.559024      0.985870      1.570092
  C       1.024828      2.132554      1.239149
  C       0.959723      3.191829      2.302596
  H       0.922272      4.183314      1.859181
  H       1.864187      3.135656      2.911182
  H       0.109359      3.044401      2.964050
  H       3.258196     -1.853495      1.058600
  H       1.886788     -2.894429     -1.045372
39
Coordinates from ORCA-job reaction4-IEIP_ts_guess_scan_10-3_orca E -1288.400145467330
  Ir      0.628524     -0.716770      0.421374
  C       0.139837     -2.832111      0.318487
  C       0.003291     -2.379016      1.677722
  C       2.203070     -2.077653      1.033543
  C       1.480277     -2.647125     -0.075862
  C       1.288165     -1.944031      2.105861
  N      -1.052669      0.132391     -0.515008
  C      -2.314712      0.385582      0.196915
  C      -3.095198      1.573340     -0.346989
  H      -3.915994      1.796674      0.333067
  H      -3.544205      1.375523     -1.321225
  H      -2.477676      2.468858     -0.419215
  C      -3.156377     -0.885866      0.198818
  H      -2.018091      0.611156      1.222033
  H      -4.052070     -0.734718      0.799709
  H      -3.472763     -1.150709     -0.810897
  H      -2.616744     -1.731987      0.621498
  C      -0.904980      0.411464     -1.756407
  C       0.419486      0.214982     -2.275325
  H      -1.713356      0.806609     -2.363634
  C       1.481505      0.168125     -1.368734
  C       2.696203     -0.127856     -2.062786
  S       0.884165     -0.086294     -3.876459
  C       2.521583     -0.286398     -3.401889
  H       1.551105      1.167566     -0.653420
  H       3.666506     -0.162755     -1.589076
  H       3.273400     -0.487177     -4.149933
  H      -0.647136     -3.244350     -0.296298
  H      -0.885270     -2.428466      2.288695
  H       1.512770     -1.512037      3.070878
  O       1.528810      2.390933      0.137871
  O       0.560326      0.985955      1.568321
  C       1.024865      2.133258      1.237410
  C       0.958822      3.192323      2.300919
  H       0.916670      4.183519      1.857230
  H       1.865289      3.139661      2.906822
  H       0.110819      3.042126      2.964738
  H       3.257962     -1.852694      1.065337
  H       1.893163     -2.892841     -1.043352
39
Coordinates from ORCA-job reaction4-IEIP_ts_guess_scan_10-3_orca E -1288.400143876872
  Ir      0.629440     -0.717541      0.421136
  C       0.140354     -2.832309      0.317235
  C       0.002633     -2.379584      1.676546
  C       2.203194     -2.078759      1.034729
  C       1.481350     -2.647669     -0.075583
  C       1.287210     -1.945145      2.106168
  N      -1.051877      0.132552     -0.514533
  C      -2.313638      0.385636      0.197976
  C      -3.093776      1.574213     -0.344719
  H      -3.914367      1.797229      0.335686
  H      -3.542974      1.377530     -1.319094
  H      -2.475917      2.469566     -0.416184
  C      -3.155855     -0.885416      0.198768
  H      -2.016677      0.610318      1.223179
  H      -4.051394     -0.734416      0.799931
  H      -3.472540     -1.149152     -0.811139
  H      -2.616671     -1.732290      0.620501
  C      -0.904443      0.412450     -1.755748
  C       0.419988      0.215364     -2.274870
  H      -1.712582      0.808608     -2.362603
  C       1.482355      0.168217     -1.368577
  C       2.696557     -0.128640     -2.063132
  S       0.883868     -0.086587     -3.876046
  C       2.521370     -0.287615     -3.402086
  H       1.551131      1.168241     -0.654403
  H       3.667013     -0.164230     -1.589774
  H       3.272585     -0.489095     -4.150543
  H      -0.645869     -3.244548     -0.298506
  H      -0.886784     -2.428160      2.286359
  H       1.511066     -1.513457      3.071494
  O       1.526165      2.392027      0.136159
  O       0.561611      0.985528      1.567680
  C       1.023597      2.133763      1.236156
  C       0.956128      3.192853      2.299485
  H       0.910094      4.183731      1.855436
  H       1.863946      3.143340      2.903619
  H       0.109812      3.040278      2.964891
  H       3.258155     -1.854319      1.067864
  H       1.895113     -2.893321     -1.042719
