! Opt PBEh-3c
%geom Constraints
{ B 0 20 2.3857142857142857 C }
{ B 24 30 1.3857142857142857 C }
    end
end
%output 
xyzfile=True 
end 
%scf 
maxiter 250 
end
%output
Print[P_Hirshfeld] = 1
end
% maxcore
4000
*xyz 1 1
Ir   0.59177155  -0.72367262   0.47035645 
C    0.03836184  -2.80809762   0.36946273 
C    0.08323181  -2.35261259   1.73576289 
C    2.19393564  -2.13399978   0.83519141 
C    1.31870664  -2.65053046  -0.19267754 
C    1.44090693  -1.98569823   2.01465850 
N   -1.04355701   0.15173989  -0.51779807 
C   -2.31913017   0.45576090   0.15092017 
C   -3.11903231   1.55286255  -0.53378665 
H   -3.94893894   1.83824347   0.11127321 
H   -3.55831529   1.23284717  -1.47989897 
H   -2.52067312   2.44763070  -0.70764867 
C   -3.13472760  -0.82264055   0.30327434 
H   -2.03460912   0.80713010   1.14404522 
H   -4.05230991  -0.60809632   0.84911678 
H   -3.41328982  -1.23306180  -0.66820703 
H   -2.59718999  -1.58726967   0.86205406 
C   -0.85431155   0.37452676  -1.76245082 
C    0.48944108   0.17854915  -2.24971597 
H   -1.64792266   0.73046262  -2.41303187 
C    1.58539586   0.41895674  -1.42834523 
C    2.79090098   0.04847600  -2.08975995 
S    0.92303047  -0.43985110  -3.77757868 
C    2.58475423  -0.42218020  -3.34965951 
H    1.53495037   1.33031405  -0.62773523 
H    3.77541908   0.18006432  -1.66487722 
H    3.32443918  -0.73983734  -4.06898614 
H   -0.83679343  -3.17481600  -0.14748071 
H   -0.72499006  -2.38219805   2.45143012 
H    1.80282109  -1.58498799   2.95068612 
O    1.38466180   2.42410147   0.23310299 
O    0.53367019   0.93434513   1.65666473 
C    0.94633302   2.11185860   1.34263331 
C    0.89721840   3.11982896   2.45505746 
H    0.86872749   4.13109946   2.05863995 
H    1.80116789   3.02416212   3.05985155 
H    0.04785928   2.95148328   3.11351312 
H    3.24429269  -1.91151931   0.72086161 
H    1.60316339  -2.88418375  -1.20817840 
*
