! Opt PBEh-3c
%geom Constraints
{ B 0 20 2.3 C }
{ B 24 30 1.4857142857142858 C }
    end
end
%output 
xyzfile=True 
end 
%scf 
maxiter 250 
end
%output
Print[P_Hirshfeld] = 1
end
% maxcore
4000
*xyz 1 1
Ir   0.61386701  -0.70649361   0.42098806 
C    0.06795212  -2.79903602   0.33842672 
C    0.12430379  -2.34069453   1.70265424 
C    2.22366606  -2.10957028   0.77795194 
C    1.34198892  -2.63876168  -0.23766121 
C    1.48004733  -1.96020160   1.96435817 
N   -1.04748657   0.16768251  -0.52932705 
C   -2.31081605   0.48247477   0.15449297 
C   -3.11306385   1.57926700  -0.52718094 
H   -3.93637018   1.86988325   0.12396220 
H   -3.56147667   1.25675728  -1.46822227 
H   -2.51301856   2.47134448  -0.70903128 
C   -3.12753633  -0.79310126   0.32382936 
H   -2.00961631   0.83648234   1.14153304 
H   -4.03357130  -0.57437504   0.88689413 
H   -3.42582177  -1.20393684  -0.64156561 
H   -2.58093287  -1.55829062   0.87313936 
C   -0.86614230   0.38264255  -1.77483675 
C    0.47971843   0.15452026  -2.24842388 
H   -1.65183604   0.74975072  -2.42838451 
C    1.56712814   0.39942734  -1.41128148 
C    2.77996620  -0.00240052  -2.04697900 
S    0.92638747  -0.53007723  -3.73826511 
C    2.58563717  -0.51672711  -3.28926284 
H    1.52165485   1.31527720  -0.67864477 
H    3.75909888   0.13728349  -1.61241777 
H    3.32966921  -0.86833939  -3.98790018 
H   -0.81031435  -3.17322693  -0.16780463 
H   -0.67667251  -2.36985108   2.42629748 
H    1.84821538  -1.55047935   2.89402678 
O    1.31285319   2.48385043   0.23832768 
O    0.53500406   0.92871243   1.63437437 
C    0.90586022   2.13043070   1.34194717 
C    0.83969643   3.09982874   2.48968984 
H    0.80119400   4.12334270   2.12704331 
H    1.74034936   2.99388279   3.09756386 
H   -0.01143229   2.90131139   3.13779705 
H    3.27298152  -1.88690505   0.65559364 
H    1.61823826  -2.88249427  -1.25296199 
*
