39
Coordinates from ORCA-job reaction4-IEIP_ts_guess_scan_3-12_orca E -1288.395066979655
  Ir      0.579755     -0.730834      0.495322
  C       0.034954     -2.812477      0.367572
  C       0.059534     -2.363142      1.737483
  C       2.183467     -2.137363      0.870835
  C       1.323166     -2.646425     -0.173695
  C       1.414006     -1.999654      2.040490
  N      -1.044097      0.143407     -0.505206
  C      -2.326761      0.438793      0.156286
  C      -3.115700      1.552115     -0.515517
  H      -3.948550      1.831953      0.128201
  H      -3.550034      1.250190     -1.469693
  H      -2.510357      2.445451     -0.671101
  C      -3.149009     -0.838897      0.275623
  H      -2.053253      0.770901      1.159134
  H      -4.071157     -0.632585      0.817022
  H      -3.419684     -1.228673     -0.706573
  H      -2.619378     -1.617159      0.823101
  C      -0.850781      0.361441     -1.748288
  C       0.491806      0.175699     -2.234388
  H      -1.647378      0.704287     -2.402824
  C       1.595110      0.435800     -1.432366
  C       2.793646      0.076549     -2.109496
  S       0.911726     -0.430972     -3.775792
  C       2.576443     -0.394143     -3.368855
  H       1.544778      1.349262     -0.591054
  H       3.783146      0.216474     -1.698915
  H       3.311680     -0.702615     -4.096881
  H      -0.831547     -3.178548     -0.164129
  H      -0.758992     -2.399643      2.441254
  H       1.761344     -1.606138      2.985098
  O       1.420178      2.389478      0.225970
  O       0.541891      0.939948      1.663542
  C       0.968945      2.103994      1.337802
  C       0.927192      3.135103      2.427768
  H       0.874126      4.136895      2.010039
  H       1.847195      3.068469      3.011989
  H       0.095707      2.967535      3.108405
  H       3.234183     -1.909444      0.770958
  H       1.622069     -2.865839     -1.188380
39
Coordinates from ORCA-job reaction4-IEIP_ts_guess_scan_3-12_orca E -1288.395209915115
  Ir      0.582457     -0.732337      0.495913
  C       0.033147     -2.814422      0.373396
  C       0.056548     -2.363583      1.742530
  C       2.181987     -2.142108      0.878268
  C       1.322350     -2.651975     -0.166267
  C       1.410747     -2.000689      2.046322
  N      -1.044083      0.142963     -0.507161
  C      -2.325941      0.437454      0.154785
  C      -3.115924      1.548601     -0.519255
  H      -3.949839      1.828043      0.123242
  H      -3.548659      1.244590     -1.473531
  H      -2.511855      2.442686     -0.675536
  C      -3.145888     -0.841458      0.275926
  H      -2.052166      0.771136      1.157037
  H      -4.067899     -0.636135      0.817905
  H      -3.416720     -1.232585     -0.705683
  H      -2.614365     -1.618273      0.823686
  C      -0.852814      0.364150     -1.752519
  C       0.490359      0.184519     -2.244077
  H      -1.650993      0.710311     -2.403387
  C       1.592092      0.432110     -1.436095
  C       2.790982      0.073712     -2.113850
  S       0.911065     -0.412082     -3.788892
  C       2.575172     -0.384747     -3.377850
  H       1.544079      1.353320     -0.591307
  H       3.780070      0.207132     -1.700067
  H       3.310981     -0.688919     -4.107005
  H      -0.833129     -3.180224     -0.158871
  H      -0.762767     -2.398266      2.445368
  H       1.757324     -1.605941      2.990678
  O       1.424439      2.394223      0.225583
  O       0.541879      0.941659      1.665114
  C       0.971833      2.105926      1.339447
  C       0.930817      3.136349      2.429862
  H       0.878759      4.138520      2.012806
  H       1.850583      3.068376      3.014258
  H       0.098957      2.968963      3.110001
  H       3.233402     -1.917050      0.779833
  H       1.622380     -2.874759     -1.179868
39
Coordinates from ORCA-job reaction4-IEIP_ts_guess_scan_3-12_orca E -1288.395277695136
  Ir      0.581640     -0.733038      0.497538
  C       0.027996     -2.814895      0.382678
  C       0.048073     -2.361251      1.750306
  C       2.176230     -2.144573      0.890762
  C       1.318990     -2.656650     -0.154159
  C       1.401136     -1.998024      2.055958
  N      -1.041229      0.139757     -0.507862
  C      -2.323388      0.432801      0.153896
  C      -3.115391      1.543044     -0.519369
  H      -3.949884      1.820685      0.123190
  H      -3.547569      1.238883     -1.473821
  H      -2.512942      2.438329     -0.675040
  C      -3.142053     -0.846934      0.275547
  H      -2.049620      0.766571      1.156153
  H      -4.063906     -0.642671      0.818263
  H      -3.413136     -1.238188     -0.705922
  H      -2.609234     -1.623121      0.822776
  C      -0.850593      0.365834     -1.753701
  C       0.491850      0.190579     -2.252025
  H      -1.650066      0.715858     -2.400535
  C       1.593896      0.421049     -1.439310
  C       2.792020      0.071631     -2.123632
  S       0.910579     -0.379439     -3.806653
  C       2.574949     -0.364800     -3.395103
  H       1.549465      1.350482     -0.591084
  H       3.781539      0.196150     -1.708043
  H       3.309839     -0.657673     -4.129743
  H      -0.837295     -3.180928     -0.150992
  H      -0.773090     -2.393059      2.451009
  H       1.745454     -1.600462      2.999962
  O       1.435404      2.392724      0.224897
  O       0.537376      0.942872      1.663094
  C       0.975349      2.104149      1.338315
  C       0.935237      3.135794      2.426870
  H       0.889922      4.137850      2.008722
  H       1.852224      3.063620      3.015125
  H       0.099620      2.972884      3.103385
  H       3.228527     -1.922539      0.795240
  H       1.621451     -2.884109     -1.165950
39
Coordinates from ORCA-job reaction4-IEIP_ts_guess_scan_3-12_orca E -1288.395303609673
  Ir      0.582616     -0.736097      0.500912
  C       0.025754     -2.817586      0.393868
  C       0.042919     -2.359909      1.759821
  C       2.173763     -2.149023      0.904405
  C       1.318437     -2.663567     -0.140705
  C       1.395359     -1.996782      2.066896
  N      -1.039773      0.136472     -0.509439
  C      -2.323320      0.426962      0.151678
  C      -3.115356      1.539470     -0.517797
  H      -3.950547      1.814017      0.125167
  H      -3.546697      1.238965     -1.473775
  H      -2.513374      2.435794     -0.669301
  C      -3.143046     -0.852695      0.268085
  H      -2.051045      0.757338      1.155478
  H      -4.065626     -0.649529      0.809982
  H      -3.412838     -1.240658     -0.715046
  H      -2.611755     -1.630885      0.813692
  C      -0.849709      0.368702     -1.754236
  C       0.490801      0.197151     -2.257150
  H      -1.650629      0.720969     -2.397974
  C       1.593361      0.411298     -1.440695
  C       2.790594      0.070358     -2.130404
  S       0.907720     -0.347743     -3.820626
  C       2.572367     -0.341531     -3.409937
  H       1.553458      1.344890     -0.591048
  H       3.780396      0.184454     -1.712527
  H       3.306434     -0.622963     -4.149833
  H      -0.838678     -3.184203     -0.140790
  H      -0.779953     -2.388177      2.458638
  H       1.737876     -1.596033      3.010230
  O       1.444339      2.388964      0.223265
  O       0.537378      0.944733      1.661900
  C       0.980220      2.102715      1.336282
  C       0.942611      3.137591      2.421578
  H       0.901742      4.138733      2.000871
  H       1.858448      3.063381      3.011399
  H       0.105310      2.979413      3.097164
  H       3.226872     -1.929865      0.811434
  H       1.622940     -2.895932     -1.150721
39
Coordinates from ORCA-job reaction4-IEIP_ts_guess_scan_3-12_orca E -1288.395313381709
  Ir      0.581948     -0.738530      0.504255
  C       0.023824     -2.819372      0.402684
  C       0.036607     -2.358107      1.767240
  C       2.170782     -2.151390      0.918021
  C       1.318603     -2.668296     -0.128390
  C       1.388075     -1.994575      2.077207
  N      -1.037737      0.133152     -0.510051
  C      -2.322488      0.420301      0.151078
  C      -3.114444      1.536456     -0.512527
  H      -3.949733      1.807189      0.131897
  H      -3.545804      1.241269     -1.470145
  H      -2.512704      2.433796     -0.658937
  C      -3.143129     -0.859484      0.259927
  H      -2.051659      0.745575      1.156954
  H      -4.066560     -0.658288      0.801086
  H      -3.411386     -1.242591     -0.725530
  H      -2.613478     -1.640713      0.802773
  C      -0.848225      0.371494     -1.753466
  C       0.490004      0.203513     -2.260439
  H      -1.650704      0.725514     -2.394403
  C       1.593942      0.400581     -1.441575
  C       2.789832      0.068432     -2.137083
  S       0.904974     -0.309703     -3.834653
  C       2.569197     -0.321578     -3.423292
  H       1.559595      1.335792     -0.590543
  H       3.780144      0.169701     -1.717199
  H       3.301713     -0.594578     -4.167859
  H      -0.838987     -3.186805     -0.134032
  H      -0.788680     -2.383324      2.463303
  H       1.727781     -1.590809      3.020294
  O       1.454707      2.382286      0.221215
  O       0.536173      0.946682      1.659611
  C       0.984836      2.100773      1.333022
  C       0.948336      3.140479      2.414012
  H       0.912642      4.140134      1.989428
  H       1.862170      3.064875      3.006763
  H       0.108486      2.988188      3.087858
  H       3.224602     -1.934202      0.828743
  H       1.626117     -2.904648     -1.136508
39
Coordinates from ORCA-job reaction4-IEIP_ts_guess_scan_3-12_orca E -1288.395321619599
  Ir      0.581057     -0.740478      0.507140
  C       0.023038     -2.820763      0.406262
  C       0.031631     -2.357920      1.770333
  C       2.168725     -2.153010      0.927535
  C       1.319650     -2.670704     -0.121021
  C       1.382283     -1.994369      2.083958
  N      -1.035913      0.131461     -0.509236
  C      -2.321057      0.417076      0.152249
  C      -3.111847      1.536759     -0.506961
  H      -3.946694      1.805686      0.138792
  H      -3.543805      1.245863     -1.465610
  H      -2.509270      2.434083     -0.649932
  C      -3.143084     -0.862312      0.255141
  H      -2.050926      0.738194      1.159639
  H      -4.067092     -0.662197      0.795733
  H      -3.410357     -1.241462     -0.732112
  H      -2.615123     -1.646283      0.795721
  C      -0.846952      0.371643     -1.752185
  C       0.489634      0.204077     -2.260940
  H      -1.650477      0.725172     -2.392181
  C       1.594951      0.391761     -1.441708
  C       2.789949      0.067657     -2.141845
  S       0.902441     -0.299031     -3.839014
  C       2.567520     -0.306248     -3.432798
  H       1.564048      1.326590     -0.590021
  H       3.780869      0.165353     -1.722644
  H       3.299147     -0.568730     -4.182018
  H      -0.838041     -3.188570     -0.132971
  H      -0.795949     -2.381673      2.463730
  H       1.719241     -1.589348      3.027503
  O       1.460266      2.375366      0.218929
  O       0.535539      0.946778      1.658576
  C       0.986890      2.098646      1.330082
  C       0.949578      3.142629      2.407316
  H       0.915762      4.140738      1.979022
  H       1.862233      3.068126      3.002008
  H       0.108373      2.993813      3.080282
  H       3.222995     -1.936605      0.841822
  H       1.630136     -2.908581     -1.127837
39
Coordinates from ORCA-job reaction4-IEIP_ts_guess_scan_3-12_orca E -1288.395327527764
  Ir      0.581533     -0.740331      0.507115
  C       0.024920     -2.820916      0.404082
  C       0.032195     -2.358597      1.768490
  C       2.169911     -2.152314      0.927775
  C       1.321891     -2.669743     -0.121842
  C       1.382566     -1.994818      2.083633
  N      -1.036183      0.131960     -0.508720
  C      -2.321128      0.417144      0.153291
  C      -3.111106      1.538219     -0.504592
  H      -3.945723      1.807013      0.141532
  H      -3.543253      1.248740     -1.463574
  H      -2.507809      2.435198     -0.646579
  C      -3.143643     -0.862100      0.253954
  H      -2.051021      0.736682      1.161159
  H      -4.067785     -0.662540      0.794557
  H      -3.410741     -1.239650     -0.733961
  H      -2.616146     -1.647137      0.793396
  C      -0.847762      0.371625     -1.751988
  C       0.488852      0.204360     -2.260532
  H      -1.651530      0.724591     -2.391955
  C       1.594348      0.392651     -1.441864
  C       2.789166      0.066275     -2.140998
  S       0.901889     -0.298593     -3.838854
  C       2.566437     -0.310276     -3.431243
  H       1.564183      1.326102     -0.589732
  H       3.780108      0.163237     -1.721694
  H       3.297953     -0.575380     -4.179653
  H      -0.835423     -3.189004     -0.136130
  H      -0.795979     -2.383101      2.461169
  H       1.718587     -1.590269      3.027713
  O       1.460014      2.375411      0.218477
  O       0.536347      0.947063      1.658899
  C       0.986711      2.099478      1.329669
  C       0.948177      3.143756      2.406581
  H       0.912820      4.141603      1.977775
  H       1.861115      3.070782      3.001010
  H       0.107392      2.994095      3.079855
  H       3.224133     -1.935258      0.843088
  H       1.633353     -2.906770     -1.128571
39
Coordinates from ORCA-job reaction4-IEIP_ts_guess_scan_3-12_orca E -1288.395332746544
  Ir      0.582161     -0.740293      0.507671
  C       0.027297     -2.821302      0.401360
  C       0.030580     -2.359480      1.766121
  C       2.170566     -2.151648      0.931729
  C       1.325643     -2.668851     -0.120537
  C       1.379995     -1.995430      2.085454
  N      -1.035628      0.132335     -0.507336
  C      -2.320327      0.416332      0.155556
  C      -3.108867      1.540507     -0.498934
  H      -3.943092      1.808536      0.148027
  H      -3.541329      1.254384     -1.458762
  H      -2.504234      2.436962     -0.638379
  C      -3.143770     -0.862692      0.251143
  H      -2.050330      0.732124      1.164585
  H      -4.068068     -0.664671      0.792083
  H      -3.410684     -1.236403     -0.738283
  H      -2.616952     -1.650188      0.787681
  C      -0.848413      0.371487     -1.751117
  C       0.487815      0.204732     -2.260468
  H      -1.653022      0.723559     -2.390500
  C       1.594058      0.391266     -1.442611
  C       2.788178      0.064206     -2.142253
  S       0.899994     -0.296335     -3.839999
  C       2.564183     -0.312072     -3.432537
  H       1.566079      1.323227     -0.589129
  H       3.779482      0.159833     -1.723536
  H       3.295133     -0.577891     -4.181258
  H      -0.831123     -3.189895     -0.141552
  H      -0.799526     -2.384834      2.456469
  H       1.713179     -1.591348      3.030738
  O       1.461932      2.374055      0.217107
  O       0.537399      0.947570      1.658979
  C       0.987295      2.100191      1.328170
  C       0.945993      3.145908      2.403486
  H       0.908542      4.142963      1.972963
  H       1.858940      3.075884      2.998225
  H       0.105330      2.995462      3.076693
  H       3.224917     -1.934009      0.850265
  H       1.640045     -2.904993     -1.126576
39
Coordinates from ORCA-job reaction4-IEIP_ts_guess_scan_3-12_orca E -1288.395336940589
  Ir      0.583206     -0.740498      0.508621
  C       0.030309     -2.822123      0.398964
  C       0.027495     -2.360495      1.763918
  C       2.171002     -2.151058      0.939016
  C       1.330804     -2.668442     -0.116928
  C       1.375296     -1.995905      2.089327
  N      -1.034696      0.132161     -0.505587
  C      -2.319242      0.414578      0.158272
  C      -3.105720      1.543218     -0.491199
  H      -3.939544      1.809961      0.156806
  H      -3.538436      1.262061     -1.452354
  H      -2.499219      2.438998     -0.626690
  C      -3.144302     -0.863929      0.246651
  H      -2.049465      0.724911      1.169008
  H      -4.068596     -0.668011      0.788389
  H      -3.411322     -1.231879     -0.744910
  H      -2.618415     -1.655085      0.778715
  C      -0.849057      0.371176     -1.749832
  C       0.486447      0.205103     -2.260900
  H      -1.654874      0.722465     -2.388116
  C       1.593782      0.388281     -1.443955
  C       2.786842      0.061718     -2.145319
  S       0.896843     -0.292286     -3.842384
  C       2.560997     -0.311159     -3.436423
  H       1.568903      1.319130     -0.588565
  H       3.778727      0.155384     -1.727570
  H       3.291077     -0.575843     -4.186402
  H      -0.825282     -3.191569     -0.147802
  H      -0.805525     -2.386714      2.450726
  H       1.704087     -1.591962      3.036215
  O       1.465596      2.371975      0.215143
  O       0.538828      0.948301      1.658657
  C       0.988647      2.100706      1.325896
  C       0.944088      3.148587      2.398826
  H       0.904248      4.144560      1.965960
  H       1.857046      3.082304      2.993951
  H       0.103527      2.997443      3.071956
  H       3.225612     -1.932969      0.862399
  H       1.649656     -2.903904     -1.121742
39
Coordinates from ORCA-job reaction4-IEIP_ts_guess_scan_3-12_orca E -1288.395340667380
  Ir      0.584762     -0.740895      0.509754
  C       0.034370     -2.823379      0.396265
  C       0.022697     -2.361758      1.761267
  C       2.171284     -2.150241      0.949998
  C       1.337993     -2.668337     -0.111000
  C       1.367955     -1.996138      2.095245
  N      -1.033503      0.131397     -0.503361
  C      -2.317950      0.411734      0.161624
  C      -3.101560      1.546551     -0.480725
  H      -3.935036      1.811250      0.168549
  H      -3.534377      1.272461     -1.443844
  H      -2.492575      2.441491     -0.610374
  C      -3.145353     -0.865926      0.240043
  H      -2.048500      0.714382      1.174732
  H      -4.069269     -0.673035      0.783519
  H      -3.413134     -1.225431     -0.754415
  H      -2.620446     -1.662339      0.765234
  C      -0.849848      0.370651     -1.747984
  C       0.484604      0.205260     -2.261662
  H      -1.657195      0.721355     -2.384678
  C       1.593421      0.384171     -1.445954
  C       2.785021      0.059100     -2.150280
  S       0.892104     -0.287373     -3.845597
  C       2.556620     -0.308700     -3.442491
  H       1.572414      1.314225     -0.588285
  H       3.777735      0.150554     -1.734036
  H       3.285443     -0.571120     -4.194488
  H      -0.817193     -3.194121     -0.155865
  H      -0.814480     -2.389070      2.442968
  H       1.690254     -1.591964      3.044280
  O       1.471065      2.369472      0.212517
  O       0.540931      0.949405      1.657745
  C       0.990972      2.101182      1.322774
  C       0.942646      3.151997      2.392531
  H       0.899617      4.146571      1.956701
  H       1.855872      3.090647      2.987758
  H       0.102479      2.999978      3.065905
  H       3.226266     -1.931743      0.880318
  H       1.663267     -2.903073     -1.113947
39
Coordinates from ORCA-job reaction4-IEIP_ts_guess_scan_3-12_orca E -1288.395343434172
  Ir      0.586510     -0.741398      0.510721
  C       0.039417     -2.824884      0.393248
  C       0.017176     -2.363245      1.758173
  C       2.171621     -2.148776      0.962874
  C       1.346683     -2.668206     -0.103898
  C       1.359153     -1.995826      2.102041
  N      -1.032595      0.130031     -0.501199
  C      -2.316935      0.408319      0.164972
  C      -3.097248      1.549987     -0.469354
  H      -3.930514      1.812201      0.181173
  H      -3.529955      1.283954     -1.434749
  H      -2.485580      2.444044     -0.592178
  C      -3.147121     -0.868187      0.232455
  H      -2.047790      0.702397      1.180648
  H      -4.070113     -0.678726      0.778695
  H      -3.416594     -1.217759     -0.765090
  H      -2.622984     -1.670674      0.749151
  C      -0.850952      0.369841     -1.746012
  C       0.482368      0.204942     -2.262587
  H      -1.659740      0.720436     -2.380991
  C       1.592728      0.380103     -1.448290
  C       2.782791      0.056703     -2.155948
  S       0.886485     -0.283090     -3.848805
  C       2.551730     -0.305913     -3.449161
  H       1.575384      1.309804     -0.588742
  H       3.776358      0.146110     -1.741307
  H       3.279152     -0.565873     -4.203359
  H      -0.807373     -3.197303     -0.165039
  H      -0.824816     -2.391976      2.433866
  H       1.673591     -1.590973      3.053447
  O       1.477170      2.367107      0.209736
  O       0.543220      0.950669      1.656206
  C       0.993823      2.101495      1.319397
  C       0.942422      3.155377      2.385959
  H       0.895759      4.148516      1.947196
  H       1.856423      3.099245      2.980509
  H       0.103223      3.002436      3.060295
  H       3.226960     -1.929727      0.901291
  H       1.679534     -2.901992     -1.104603
39
Coordinates from ORCA-job reaction4-IEIP_ts_guess_scan_3-12_orca E -1288.395345176036
  Ir      0.588134     -0.741912      0.511366
  C       0.045494     -2.826493      0.389429
  C       0.011211     -2.365073      1.754242
  C       2.172032     -2.146329      0.976849
  C       1.356773     -2.667654     -0.096329
  C       1.349202     -1.994923      2.109082
  N      -1.032248      0.128277     -0.499276
  C      -2.316426      0.404608      0.168165
  C      -3.093306      1.553285     -0.457755
  H      -3.926575      1.812573      0.193927
  H      -3.525631      1.295825     -1.425613
  H      -2.479067      2.446555     -0.573121
  C      -3.149501     -0.870582      0.224413
  H      -2.047547      0.689860      1.186395
  H      -4.070992     -0.684927      0.774471
  H      -3.421638     -1.209237     -0.776172
  H      -2.625725     -1.679592      0.731278
  C      -0.852528      0.368816     -1.744119
  C       0.479716      0.204087     -2.263499
  H      -1.662497      0.719726     -2.377495
  C       1.591557      0.376688     -1.450734
  C       2.780158      0.054754     -2.161629
  S       0.880337     -0.280461     -3.851459
  C       2.546563     -0.304059     -3.455382
  H       1.577213      1.306481     -0.590201
  H       3.774509      0.142682     -1.748548
  H       3.272518     -0.562087     -4.211639
  H      -0.795841     -3.200924     -0.175702
  H      -0.836110     -2.395687      2.423164
  H       1.654594     -1.589031      3.063023
  O       1.483377      2.365169      0.206966
  O       0.545463      0.952174      1.654135
  C       0.997134      2.101809      1.316052
  C       0.943969      3.158576      2.379760
  H       0.893117      4.150328      1.938306
  H       1.859503      3.107663      2.972423
  H       0.106621      3.004662      3.056148
  H       3.227647     -1.926429      0.924334
  H       1.698160     -2.900006     -1.094516
39
Coordinates from ORCA-job reaction4-IEIP_ts_guess_scan_3-12_orca E -1288.395345992858
  Ir      0.589092     -0.742200      0.511637
  C       0.051628     -2.827801      0.385210
  C       0.006112     -2.367000      1.749992
  C       2.172515     -2.143046      0.989020
  C       1.366460     -2.666359     -0.090053
  C       1.340188     -1.993616      2.114831
  N      -1.032642      0.126700     -0.498042
  C      -2.316585      0.401553      0.170574
  C      -3.090749      1.555736     -0.448576
  H      -3.924206      1.812328      0.203936
  H      -3.522537      1.305355     -1.418507
  H      -2.474683      2.448528     -0.557625
  C      -3.151933     -0.872521      0.217906
  H      -2.047847      0.679906      1.190721
  H      -4.071762     -0.690177      0.771831
  H      -3.426970     -1.201907     -0.784974
  H      -2.628101     -1.686963      0.716000
  C      -0.854454      0.367779     -1.742865
  C       0.477035      0.202993     -2.264267
  H      -1.665142      0.719155     -2.375127
  C       1.589967      0.374615     -1.452779
  C       2.777521      0.053289     -2.165832
  S       0.875056     -0.279765     -3.853146
  C       2.542133     -0.303883     -3.459638
  H       1.577366      1.304814     -0.592427
  H       3.772381      0.140394     -1.753793
  H       3.266886     -0.561138     -4.217294
  H      -0.784541     -3.204221     -0.186220
  H      -0.846039     -2.399723      2.412655
  H       1.637115     -1.586678      3.071027
  O       1.488268      2.363903      0.204753
  O       0.546893      0.953617      1.652068
  C       1.000171      2.102112      1.313476
  C       0.947214      3.160802      2.375419
  H       0.892352      4.151524      1.932116
  H       1.864870      3.113918      2.965130
  H       0.112400      3.006037      3.054716
  H       3.228233     -1.921972      0.944851
  H       1.715705     -2.896897     -1.085966
39
Coordinates from ORCA-job reaction4-IEIP_ts_guess_scan_3-12_orca E -1288.395346343759
  Ir      0.589245     -0.742193      0.511665
  C       0.056545     -2.828634      0.381373
  C       0.002376     -2.368657      1.746220
  C       2.172804     -2.139790      0.997765
  C       1.373959     -2.664673     -0.085848
  C       1.333336     -1.992382      2.118675
  N      -1.033421      0.125746     -0.497508
  C      -2.317137      0.399592      0.172004
  C      -3.089812      1.557031     -0.442944
  H      -3.923526      1.811595      0.210051
  H      -3.521094      1.311164     -1.414239
  H      -2.472889      2.449719     -0.547828
  C      -3.153699     -0.873867      0.213871
  H      -2.048439      0.673910      1.193228
  H      -4.072252     -0.693853      0.770672
  H      -3.430947     -1.197244     -0.790348
  H      -2.629569     -1.691769      0.705994
  C      -0.856284      0.366987     -1.742374
  C       0.474811      0.202098     -2.264842
  H      -1.667336      0.718577     -2.374077
  C       1.588367      0.373716     -1.454158
  C       2.775378      0.052440     -2.168181
  S       0.871508     -0.280233     -3.854010
  C       2.539039     -0.304820     -3.461759
  H       1.576382      1.304432     -0.594708
  H       3.770470      0.139352     -1.756658
  H       3.263009     -0.562161     -4.220126
  H      -0.775549     -3.206664     -0.194919
  H      -0.853437     -2.403205      2.404058
  H       1.623778     -1.584730      3.076578
  O       1.491301      2.363287      0.203220
  O       0.547404      0.954876      1.650521
  C       1.002559      2.102508      1.311888
  C       0.951300      3.161955      2.373239
  H       0.893052      4.152108      1.929065
  H       1.871246      3.117551      2.959562
  H       0.119210      3.006432      3.055667
  H       3.228499     -1.917516      0.960013
  H       1.729186     -2.893495     -1.080060
39
Coordinates from ORCA-job reaction4-IEIP_ts_guess_scan_3-12_orca E -1288.395346759977
  Ir      0.588925     -0.742003      0.511676
  C       0.059629     -2.829088      0.378784
  C       0.000168     -2.369769      1.743711
  C       2.172892     -2.137365      1.002868
  C       1.378514     -2.663195     -0.083534
  C       1.329186     -1.991542      2.120822
  N      -1.034120      0.125389     -0.497454
  C      -2.317668      0.398728      0.172577
  C      -3.089874      1.557435     -0.440619
  H      -3.923745      1.810954      0.212596
  H      -3.520877      1.313529     -1.412524
  H      -2.472741      2.450189     -0.543637
  C      -3.154619     -0.874527      0.212218
  H      -2.048927      0.671576      1.194167
  H      -4.072573     -0.695613      0.770367
  H      -3.432915     -1.195338     -0.792531
  H      -2.630295     -1.693917      0.701667
  C      -0.857618      0.366456     -1.742452
  C       0.473324      0.201615     -2.265320
  H      -1.668897      0.717899     -2.373942
  C       1.587124      0.373313     -1.454952
  C       2.773985      0.051992     -2.169143
  S       0.869751     -0.280505     -3.854615
  C       2.537334     -0.305534     -3.462617
  H       1.575134      1.304386     -0.596297
  H       3.769125      0.138875     -1.757738
  H       3.260948     -0.563071     -4.221258
  H      -0.769875     -3.208213     -0.200509
  H      -0.857877     -2.405498      2.398574
  H       1.615708     -1.583584      3.079784
  O       1.492577      2.362947      0.202286
  O       0.547220      0.955679      1.649697
  C       1.003999      2.102795      1.311119
  C       0.954806      3.162165      2.372631
  H       0.894083      4.152139      1.928347
  H       1.876679      3.118963      2.955999
  H       0.125002      3.005935      3.057638
  H       3.228508     -1.914133      0.969075
  H       1.737368     -2.890871     -1.076720
39
Coordinates from ORCA-job reaction4-IEIP_ts_guess_scan_3-12_orca E -1288.395347122498
  Ir      0.588505     -0.741812      0.511748
  C       0.061294     -2.829408      0.377372
  C      -0.001278     -2.370397      1.742312
  C       2.172748     -2.135866      1.005986
  C       1.381002     -2.662254     -0.082039
  C       1.326594     -1.991037      2.122204
  N      -1.034542      0.125305     -0.497526
  C      -2.318025      0.398317      0.172738
  C      -3.090215      1.557414     -0.439803
  H      -3.924142      1.810453      0.213533
  H      -3.521111      1.314235     -1.411933
  H      -2.473084      2.450249     -0.542114
  C      -3.154979     -0.874939      0.211554
  H      -2.049262      0.670747      1.194423
  H      -4.072836     -0.696499      0.770023
  H      -3.433468     -1.194924     -0.793405
  H      -2.630617     -1.694815      0.700153
  C      -0.858432      0.366137     -1.742675
  C       0.472411      0.201458     -2.265740
  H      -1.669955      0.717218     -2.374036
  C       1.586306      0.372876     -1.455439
  C       2.773161      0.051836     -2.169650
  S       0.868949     -0.280053     -3.855281
  C       2.536405     -0.305425     -3.463228
  H       1.574189      1.304113     -0.597129
  H       3.768313      0.138651     -1.758272
  H       3.259888     -0.562793     -4.222058
  H      -0.766624     -3.209275     -0.203693
  H      -0.860664     -2.406719      2.395383
  H       1.610840     -1.582972      3.081800
  O       1.493029      2.362684      0.201585
  O       0.546926      0.956219      1.649329
  C       1.004919      2.103013      1.310678
  C       0.957509      3.162074      2.372519
  H       0.894798      4.152027      1.928421
  H       1.880958      3.119637      2.953438
  H       0.129566      3.005097      3.059567
  H       3.228298     -1.911996      0.974575
  H       1.741997     -2.889385     -1.074582
