39
Generated by autodE on: 2023-08-13. E = -1288.400558 Ha
Ir    0.61207  -0.70793   0.42615
C     0.06554  -2.80027   0.34265
C     0.11788  -2.34199   1.70697
C     2.22032  -2.11170   0.78869
C     1.34138  -2.64030  -0.22956
C     1.47297  -1.96198   1.97276
N    -1.04766   0.16488  -0.52814
C    -2.31254   0.47599   0.15485
C    -3.11405   1.57570  -0.52314
H    -3.93809   1.86365   0.12825
H    -3.56135   1.25704  -1.46600
H    -2.51373   2.46843  -0.70077
C    -3.12943  -0.80047   0.31681
H    -2.01355   0.82563   1.14412
H    -4.03682  -0.58454   0.87879
H    -3.42543  -1.20714  -0.65106
H    -2.58385  -1.56797   0.86387
C    -0.86659   0.38270  -1.77357
C     0.47868   0.15999  -2.24959
H    -1.65409   0.74890  -2.42546
C     1.56548   0.39340  -1.40880
C     2.77811  -0.00192  -2.04837
S     0.92585  -0.50450  -3.74868
C     2.58423  -0.49883  -3.29810
H     1.52239   1.31144  -0.66921
H     3.75725   0.13044  -1.61154
H     3.32869  -0.84167  -4.00065
H    -0.81122  -3.17428  -0.16630
H    -0.68522  -2.37134   2.42823
H     1.83853  -1.55276   2.90368
O     1.32953   2.47455   0.23485
O     0.53449   0.93219   1.63485
C     0.91507   2.12913   1.33914
C     0.85045   3.10596   2.48026
H     0.81787   4.12740   2.11127
H     1.74904   2.99936   3.09107
H    -0.00336   2.91520   3.12711
H     3.27010  -1.88955   0.66950
H     1.62044  -2.88362  -1.24420
