39
Generated by autodE on: 2023-08-13. E = -1288.395813 Ha
Ir    0.57331  -0.73319   0.48215
C     0.02020  -2.81149   0.34213
C     0.11027  -2.37257   1.71508
C     2.18891  -2.14662   0.75599
C     1.28099  -2.64220  -0.25471
C     1.48111  -2.02250   1.96299
N    -1.04029   0.17537  -0.51054
C    -2.31404   0.51751   0.14205
C    -3.13211   1.54605  -0.62141
H    -3.96701   1.86325   0.00182
H    -3.56456   1.14783  -1.54076
H    -2.55137   2.43729  -0.86144
C    -3.11251  -0.75368   0.40286
H    -2.02474   0.94970   1.10158
H    -4.02882  -0.50556   0.93626
H    -3.39348  -1.24398  -0.53022
H    -2.56420  -1.46469   1.01937
C    -0.82299   0.37710  -1.75161
C     0.53086   0.14767  -2.21476
H    -1.59583   0.73784  -2.42461
C     1.64390   0.56790  -1.49800
C     2.84027   0.14168  -2.14258
S     0.93891  -0.69059  -3.64960
C     2.61278  -0.53707  -3.29848
H     1.55173   1.41944  -0.69631
H     3.83141   0.37853  -1.78396
H     3.34173  -0.94109  -3.98467
H    -0.87299  -3.16713  -0.15108
H    -0.67522  -2.41213   2.45572
H     1.87433  -1.64227   2.89484
O     1.28080   2.44947   0.27707
O     0.54091   0.89109   1.69302
C     0.89581   2.09816   1.38738
C     0.83495   3.06866   2.53374
H     0.78213   4.09045   2.16791
H     1.74432   2.97389   3.13042
H    -0.00566   2.86470   3.19380
H     3.23170  -1.90975   0.60419
H     1.53386  -2.84787  -1.28487
