! Opt PBEh-3c
%geom Constraints
{ B 0 20 2.342857142857143 C }
{ B 24 30 1.3285714285714287 C }
    end
end
%output 
xyzfile=True 
end 
%scf 
maxiter 250 
end
%output
Print[P_Hirshfeld] = 1
end
% maxcore
4000
*xyz 1 1
Ir   0.60058775  -0.73650909   0.49154207 
C    0.09057211  -2.83214418   0.36153682 
C   -0.02213237  -2.37066360   1.72186361 
C    2.17481399  -2.11608465   1.05628308 
C    1.42566840  -2.65940728  -0.05160880 
C    1.28455273  -1.97117004   2.14087920 
N   -1.04008283   0.12202379  -0.49973008 
C   -2.31994162   0.37766593   0.18314924 
C   -3.09197566   1.55722602  -0.39016601 
H   -3.92405220   1.79003491   0.27289549 
H   -3.52494875   1.34621951  -1.36882720 
H   -2.47363289   2.45193344  -0.46509124 
C   -3.15951095  -0.89459941   0.18300984 
H   -2.04766317   0.61781909   1.21184491 
H   -4.07250149  -0.73568327   0.75526014 
H   -3.44665064  -1.17701982  -0.83072103 
H   -2.63220512  -1.73312529   0.63543407 
C   -0.87521127   0.38308964  -1.74272669 
C    0.45105325   0.21777919  -2.27273371 
H   -1.68968493   0.74815584  -2.36186948 
C    1.55556514   0.29751449  -1.43470972 
C    2.74532906  -0.00680179  -2.15289986 
S    0.85777204  -0.17255433  -3.88125086 
C    2.51796609  -0.26987992  -3.47056538 
H    1.58266583   1.25281509  -0.59522568 
H    3.73614495   0.02535014  -1.72364866 
H    3.24528786  -0.49579840  -4.23563510 
H   -0.71231620  -3.22522838  -0.24519572 
H   -0.90231869  -2.41100202   2.34608735 
H    1.53096722  -1.55197351   3.10621809 
O    1.54912592   2.34725464   0.18216898 
O    0.54926086   0.97282007   1.62207916 
C    1.03212876   2.10739641   1.28424333 
C    0.98065408   3.18143108   2.33065879 
H    0.91930360   4.16496075   1.87206975 
H    1.90265241   3.14827667   2.91432797 
H    0.15007904   3.03389176   3.01636154 
H    3.23053814  -1.89199696   1.06469236 
H    1.82150957  -2.89282650  -1.02926036 
*
