! Opt PBEh-3c
%geom Constraints
{ B 0 20 2.5571428571428574 C }
{ B 24 30 1.4857142857142858 C }
    end
end
%output 
xyzfile=True 
end 
%scf 
maxiter 250 
end
%output
Print[P_Hirshfeld] = 1
end
% maxcore
4000
%pal nprocs 2
end
*xyz 1 1
Ir   0.58127022  -0.72844282   0.47086482 
C    0.03328717  -2.80987120   0.32994191 
C    0.12225722  -2.36865279   1.70260242 
C    2.20015296  -2.13837558   0.74355575 
C    1.29358007  -2.63848607  -0.26611939 
C    1.49212580  -2.01538874   1.95052150 
N   -1.03750421   0.18293623  -0.51225760 
C   -2.30714981   0.53113388   0.14443891 
C   -3.12421679   1.56049530  -0.61862125 
H   -3.95587925   1.88199254   0.00675108 
H   -3.56149961   1.16197250  -1.53561408 
H   -2.54112751   2.44921255  -0.86226438 
C   -3.10732788  -0.73767610   0.41084104 
H   -2.01256348   0.96462984   1.10169806 
H   -4.01976961  -0.48662739   0.94947070 
H   -3.39506562  -1.22756418  -0.52039568 
H   -2.55751361  -1.45018685   1.02433374 
C   -0.82197069   0.38217829  -1.75318122 
C    0.53119254   0.13744493  -2.21459207 
H   -1.59156608   0.74914022  -2.42646712 
C    1.64852013   0.57070281  -1.51236442 
C    2.84276305   0.12703087  -2.14917174 
S    0.93374971  -0.73853610  -3.62757506 
C    2.60967727  -0.58056549  -3.28603374 
H    1.55972520   1.41598901  -0.73319531 
H    3.83499086   0.37153039  -1.79907502 
H    3.33513993  -1.00433067  -3.96390215 
H   -0.85884917  -3.16923644  -0.16242641 
H   -0.66338006  -2.40813802   2.44314221 
H    1.88383953  -1.63255189   2.88197198 
O    1.22897682   2.46781482   0.28379435 
O    0.54583460   0.88099415   1.69653385 
C    0.86940280   2.10064290   1.39453708 
C    0.80175325   3.05683398   2.55359597 
H    0.72262559   4.08097735   2.19914457 
H    1.72019555   2.97570190   3.13819176 
H   -0.02599310   2.82881450   3.22203568 
H    3.24242750  -1.89924635   0.59189796 
H    1.54725870  -2.84510226  -1.29586867 
*
