39
Generated by autodE on: 2023-08-14. E = -1288.396345 Ha
Ir    0.62650  -0.72448   0.39040
C     0.16613  -2.84873   0.31404
C    -0.05446  -2.40804   1.66739
C     2.17088  -2.05570   1.14412
C     1.53091  -2.65377   0.00590
C     1.18218  -1.93977   2.16256
N    -1.07077   0.12634  -0.51510
C    -2.33230   0.33382   0.20974
C    -3.12910   1.53586  -0.27637
H    -3.95264   1.71391   0.41330
H    -3.57492   1.37950  -1.25963
H    -2.52391   2.44229  -0.30439
C    -3.16036  -0.94559   0.15131
H    -2.03686   0.51544   1.24417
H    -4.05634  -0.83507   0.76072
H    -3.47588  -1.16301  -0.86989
H    -2.61065  -1.80648   0.52808
C    -0.92680   0.47906  -1.73968
C     0.39031   0.28578  -2.26581
H    -1.73188   0.92025  -2.31774
C     1.41068   0.03719  -1.33535
C     2.63478  -0.21716  -2.04203
S     0.90020   0.22939  -3.87690
C     2.50382  -0.14266  -3.39277
H     1.59985   1.11880  -0.69858
H     3.58488  -0.38402  -1.55511
H     3.27328  -0.26265  -4.14020
H    -0.57009  -3.29104  -0.34108
H    -0.97847  -2.46504   2.22202
H     1.33871  -1.49520   3.13525
O     1.68708   2.34789   0.07924
O     0.58582   1.02339   1.49055
C     1.11725   2.13505   1.16160
C     1.05765   3.23154   2.18664
H     0.97797   4.20311   1.70515
H     1.98601   3.22782   2.76048
H     0.23365   3.08821   2.88042
H     3.22033  -1.82776   1.24846
H     2.00593  -2.90928  -0.93015
