39
Generated by autodE on: 2023-08-15. E = -1288.400467 Ha
Ir    0.59215  -0.74355   0.49610
C     0.07292  -2.83797   0.40646
C    -0.07120  -2.35806   1.75639
C     2.14371  -2.11882   1.13694
C     1.42071  -2.68006   0.02304
C     1.22313  -1.94971   2.19545
N    -1.04847   0.10710  -0.50257
C    -2.33774   0.32462   0.17627
C    -3.12311   1.51073  -0.36592
H    -3.96159   1.71142   0.29935
H    -3.54801   1.32373  -1.35300
H    -2.51711   2.41590  -0.41031
C    -3.16273  -0.95626   0.12855
H    -2.07941   0.53785   1.21460
H    -4.08560  -0.82487   0.69209
H    -3.43236  -1.21204  -0.89700
H    -2.63290  -1.80238   0.56302
C    -0.88072   0.41911  -1.73496
C     0.43946   0.27752  -2.27611
H    -1.69776   0.80561  -2.33717
C     1.53428   0.20381  -1.42844
C     2.72140  -0.04324  -2.16937
S     0.85332   0.09846  -3.92102
C     2.50087  -0.11244  -3.51441
H     1.64790   1.20202  -0.54575
H     3.70773  -0.10979  -1.73392
H     3.23062  -0.25891  -4.29631
H    -0.71438  -3.24109  -0.21383
H    -0.96540  -2.38666   2.36066
H     1.44734  -1.51223   3.15814
O     1.71983   2.27200   0.18908
O     0.53895   1.00594   1.58789
C     1.11167   2.09305   1.26459
C     1.06873   3.20942   2.26358
H     0.99398   4.17125   1.76174
H     2.00185   3.21164   2.82989
H     0.24823   3.08708   2.96512
H     3.20067  -1.90387   1.17122
H     1.83840  -2.93712  -0.93933
