! Opt PBEh-3c
%geom Constraints
{ B 0 20 2.0 C }
{ B 24 30 1.3571428571428572 C }
    end
end
%output 
xyzfile=True 
end 
%scf 
maxiter 250 
end
%output
Print[P_Hirshfeld] = 1
end
% maxcore
4000
*xyz 1 1
Ir   0.61774513  -0.73983580   0.39796025 
C    0.17330863  -2.85882713   0.32344067 
C   -0.10349472  -2.42731277   1.67085303 
C    2.13640591  -2.05110796   1.23442252 
C    1.55215349  -2.65865976   0.07551779 
C    1.10229840  -1.94708155   2.21447282 
N   -1.07991330   0.10676630  -0.50743051 
C   -2.34758660   0.28705419   0.21467000 
C   -3.13616537   1.51198031  -0.22587588 
H   -3.96573327   1.66286922   0.46300773 
H   -3.57246394   1.40214136  -1.21961975 
H   -2.52689545   2.41592943  -0.20812644 
C   -3.17875173  -0.98579957   0.09620401 
H   -2.06217067   0.42586008   1.25861237 
H   -4.07770263  -0.90158818   0.70557058 
H   -3.48930792  -1.15688557  -0.93530149 
H   -2.63201692  -1.86430061   0.43512090 
C   -0.93595458   0.48647432  -1.72464865 
C    0.37894721   0.31174152  -2.25893740 
H   -1.74492635   0.93519647  -2.29150634 
C    1.38980574  -0.00558041  -1.34504196 
C    2.61639990  -0.21842835  -2.05482614 
S    0.90319684   0.37506027  -3.86954722 
C    2.49661806  -0.04075436  -3.39945970 
H    1.62319501   1.16244564  -0.70623625 
H    3.56075949  -0.43558916  -1.57660355 
H    3.27289425  -0.11335417  -4.14603440 
H   -0.52900263  -3.31404192  -0.35937621 
H   -1.05032655  -2.48904720   2.18489742 
H    1.21410412  -1.50176913   3.19289874 
O    1.73623593   2.31809609   0.02349665 
O    0.61076361   1.04374590   1.46120644 
C    1.16229056   2.13077536   1.11976778 
C    1.14526335   3.25395149   2.11372577 
H    1.03069919   4.21150453   1.61109130 
H    2.10280189   3.27605140   2.63701758 
H    0.35856135   3.12090056   2.85084056 
H    3.17926013  -1.81828276   1.38403332 
H    2.06807447  -2.91110812  -0.83951636 
*
