! Opt PBEh-3c
%geom Constraints
{ B 0 20 2.0 C }
{ B 24 30 1.4714285714285715 C }
    end
end
%output 
xyzfile=True 
end 
%scf 
maxiter 250 
end
%output
Print[P_Hirshfeld] = 1
end
% maxcore
4000
*xyz 1 1
Ir   0.63018158  -0.71888206   0.38740878 
C    0.16336639  -2.84380384   0.31279172 
C   -0.03668385  -2.39941604   1.66773312 
C    2.18251861  -2.05659337   1.11308043 
C    1.52287265  -2.65165051  -0.01671523 
C    1.21047076  -1.93555983   2.14499186 
N   -1.06803246   0.13190584  -0.51775806 
C   -2.32772110   0.34792338   0.20769024 
C   -3.12731383   1.54209761  -0.29303445 
H   -3.94902364   1.72897385   0.39652615 
H   -3.57605138   1.37083329  -1.27248947 
H   -2.52364327   2.44895390  -0.33573122 
C   -3.15463354  -0.93299666   0.16873198 
H   -2.02905507   0.54356351   1.23857745 
H   -4.04946968  -0.81406209   0.77822067 
H   -3.47217259  -1.16521898  -0.84857409 
H   -2.60387433  -1.78795390   0.55725029 
C   -0.92435027   0.47480995  -1.74489560 
C    0.39347712   0.27544392  -2.26821221 
H   -1.72833476   0.91260212  -2.32701573 
C    1.41715267   0.04924609  -1.33419540 
C    2.64064852  -0.21696641  -2.03888363 
S    0.89888572   0.17969231  -3.87795499 
C    2.50576630  -0.17616575  -3.39012778 
H    1.59429773   1.11046409  -0.69917694 
H    3.59257733  -0.36731277  -1.55021576 
H    3.27307175  -0.31133040  -4.13717135 
H   -0.58478065  -3.28163482  -0.33177343 
H   -0.95238886  -2.45354767   2.23630431 
H    1.38336394  -1.49175426   3.11526180 
O    1.67027000   2.36262772   0.09685158 
O    0.57803526   1.01882318   1.49735768 
C    1.10217226   2.13915027   1.17466213 
C    1.02931724   3.22358018   2.21239091 
H    0.98305390   4.20274841   1.74241009 
H    1.93727528   3.19318961   2.81725426 
H    0.18098596   3.08664059   2.87793788 
H    3.23394210  -1.83075510   1.20093301 
H    1.98319629  -2.90847536  -0.95970088 
*
