39
Coordinates from ORCA-job reaction4-IEIP_ts_guess_scan_1-3_orca E -1288.397009969677
  Ir      0.577980     -0.725852      0.460872
  C       0.029710     -2.806160      0.321195
  C       0.128611     -2.368034      1.694076
  C       2.199459     -2.135314      0.720191
  C       1.285679     -2.632874     -0.284297
  C       1.500309     -2.014743      1.932583
  N      -1.046245      0.182606     -0.514417
  C      -2.316255      0.527340      0.143686
  C      -3.137785      1.553546     -0.619012
  H      -3.970035      1.872292      0.006950
  H      -3.574109      1.152532     -1.535346
  H      -2.558221      2.444230     -0.863888
  C      -3.113105     -0.743210      0.412431
  H      -2.021693      0.962184      1.100382
  H      -4.025992     -0.493721      0.951026
  H      -3.399999     -1.235679     -0.517697
  H      -2.560876     -1.452784      1.027126
  C      -0.828264      0.381246     -1.753674
  C       0.528048      0.137214     -2.201239
  H      -1.594564      0.745973     -2.431976
  C       1.635407      0.561914     -1.478841
  C       2.836960      0.120446     -2.103636
  S       0.946914     -0.726398     -3.617453
  C       2.618170     -0.575618     -3.250829
  H       1.537946      1.411293     -0.691580
  H       3.825159      0.358459     -1.737660
  H       3.352291     -0.994515     -3.922521
  H      -0.866019     -3.164127     -0.165712
  H      -0.651379     -2.410191      2.440436
  H       1.899059     -1.633909      2.861865
  O       1.250239      2.468571      0.268969
  O       0.548075      0.889418      1.681637
  C       0.883820      2.104592      1.379862
  C       0.822908      3.063768      2.536289
  H       0.755434      4.088126      2.180079
  H       1.738683      2.973864      3.123842
  H      -0.009275      2.845044      3.202368
  H       3.240467     -1.895373      0.561057
  H       1.531855     -2.836966     -1.316403
39
Coordinates from ORCA-job reaction4-IEIP_ts_guess_scan_1-3_orca E -1288.396132517477
  Ir      0.580062     -0.715515      0.453165
  C       0.043093     -2.799435      0.305679
  C       0.133801     -2.366421      1.680549
  C       2.207431     -2.118361      0.716285
  C       1.300706     -2.617657     -0.293610
  C       1.502195     -2.005421      1.925840
  N      -1.054283      0.185689     -0.521466
  C      -2.321557      0.533447      0.139141
  C      -3.149420      1.548293     -0.631789
  H      -3.980231      1.871557     -0.006231
  H      -3.587897      1.135382     -1.541822
  H      -2.573693      2.437953     -0.889159
  C      -3.112601     -0.736724      0.425909
  H      -2.023549      0.979807      1.089456
  H      -4.023529     -0.484325      0.966453
  H      -3.402620     -1.240346     -0.497241
  H      -2.554653     -1.437554      1.045512
  C      -0.843416      0.371885     -1.765002
  C       0.513132      0.128585     -2.212661
  H      -1.613864      0.725582     -2.444435
  C       1.616322      0.575005     -1.496117
  C       2.820891      0.120700     -2.107101
  S       0.938145     -0.768693     -3.605500
  C       2.607674     -0.606786     -3.235438
  H       1.515835      1.470588     -0.753291
  H       3.807415      0.376065     -1.748489
  H       3.345164     -1.038356     -3.895212
  H      -0.848478     -3.160741     -0.186329
  H      -0.648798     -2.416467      2.423612
  H       1.894832     -1.625665      2.858148
  O       1.379266      2.439875      0.326104
  O       0.527852      0.892237      1.685843
  C       0.924545      2.093885      1.410511
  C       0.823807      3.056501      2.561173
  H       0.818598      4.082178      2.202332
  H       1.694797      2.933066      3.207731
  H      -0.058145      2.870197      3.170549
  H       3.247915     -1.872975      0.562669
  H       1.552625     -2.817848     -1.325030
39
Coordinates from ORCA-job reaction4-IEIP_ts_guess_scan_1-3_orca E -1288.397088447111
  Ir      0.584080     -0.730129      0.460984
  C       0.028436     -2.810824      0.330150
  C       0.124577     -2.369441      1.701926
  C       2.199189     -2.145355      0.732917
  C       1.286971     -2.644104     -0.272208
  C       1.496155     -2.017915      1.942543
  N      -1.043629      0.181659     -0.515581
  C      -2.311841      0.526681      0.143859
  C      -3.132768      1.552487     -0.619939
  H      -3.965257      1.872122      0.005249
  H      -3.568470      1.150625     -1.536245
  H      -2.552863      2.442799     -0.865444
  C      -3.108186     -0.743777      0.414005
  H      -2.015756      0.961743      1.100003
  H      -4.020186     -0.494050      0.953981
  H      -3.396604     -1.236380     -0.515568
  H      -2.554762     -1.453105      1.027996
  C      -0.827655      0.388461     -1.756340
  C       0.528356      0.149024     -2.212416
  H      -1.595911      0.759529     -2.428940
  C       1.638321      0.556026     -1.481530
  C       2.837006      0.114650     -2.114219
  S       0.942170     -0.700007     -3.638458
  C       2.614298     -0.565149     -3.269570
  H       1.553213      1.426642     -0.703824
  H       3.826851      0.346506     -1.748873
  H       3.345925     -0.976823     -3.948261
  H      -0.866822     -3.167999     -0.158151
  H      -0.657197     -2.408142      2.446482
  H       1.893223     -1.635000      2.871667
  O       1.243494      2.465266      0.270137
  O       0.544334      0.888595      1.683834
  C       0.879472      2.102769      1.383143
  C       0.815107      3.064671      2.536916
  H       0.745048      4.088056      2.178307
  H       1.730584      2.978699      3.125435
  H      -0.017063      2.845034      3.202543
  H       3.241600     -1.910364      0.576538
  H       1.535930     -2.854291     -1.302306
39
Coordinates from ORCA-job reaction4-IEIP_ts_guess_scan_1-3_orca E -1288.396435679968
  Ir      0.571337     -0.729088      0.469139
  C       0.014734     -2.809543      0.359725
  C       0.107736     -2.353077      1.726484
  C       2.184779     -2.141314      0.759972
  C       1.274753     -2.650468     -0.241672
  C       1.478746     -2.000022      1.966417
  N      -1.049212      0.169121     -0.521253
  C      -2.321709      0.509837      0.133626
  C      -3.146540      1.531046     -0.632259
  H      -3.981786      1.846781     -0.008754
  H      -3.578767      1.126448     -1.548962
  H      -2.570809      2.424215     -0.877155
  C      -3.113594     -0.763527      0.403653
  H      -2.030493      0.947437      1.090082
  H      -4.028141     -0.516898      0.940785
  H      -3.397353     -1.258788     -0.525940
  H      -2.558892     -1.469512      1.020167
  C      -0.832657      0.375616     -1.761107
  C       0.523124      0.148151     -2.222702
  H      -1.602655      0.746393     -2.431628
  C       1.633081      0.536188     -1.482978
  C       2.833636      0.138257     -2.139587
  S       0.938021     -0.642233     -3.681316
  C       2.611575     -0.492948     -3.322611
  H       1.536681      1.346776     -0.649870
  H       3.822795      0.359576     -1.765768
  H       3.343446     -0.869923     -4.021031
  H      -0.879706     -3.171159     -0.126828
  H      -0.676050     -2.382391      2.469350
  H       1.873748     -1.606835      2.892132
  O       1.400455      2.440310      0.303488
  O       0.532838      0.902749      1.672122
  C       0.940371      2.099358      1.387851
  C       0.850213      3.067475      2.534580
  H       0.854669      4.091691      2.171684
  H       1.720461      2.938114      3.180988
  H      -0.033094      2.892018      3.145265
  H       3.227784     -1.908628      0.603583
  H       1.525847     -2.872014     -1.268930
39
Coordinates from ORCA-job reaction4-IEIP_ts_guess_scan_1-3_orca E -1288.397126987885
  Ir      0.579190     -0.726096      0.462327
  C       0.025877     -2.806619      0.335386
  C       0.119041     -2.362300      1.706118
  C       2.195118     -2.138343      0.739926
  C       1.285263     -2.640060     -0.265644
  C       1.489584     -2.008772      1.948049
  N      -1.044187      0.179669     -0.516818
  C      -2.314922      0.520673      0.141258
  C      -3.139246      1.545385     -0.620507
  H      -3.973000      1.860762      0.005170
  H      -3.573528      1.144056     -1.537676
  H      -2.562507      2.438341     -0.863831
  C      -3.108764     -0.751912      0.409175
  H      -2.021224      0.955214      1.098384
  H      -4.021972     -0.504961      0.948434
  H      -3.394987     -1.244147     -0.521272
  H      -2.554429     -1.460563      1.022919
  C      -0.827876      0.386565     -1.756894
  C       0.526976      0.149851     -2.215521
  H      -1.597384      0.754876     -2.429328
  C       1.637912      0.551139     -1.483632
  C       2.836095      0.115512     -2.120247
  S       0.939393     -0.682922     -3.650906
  C       2.612076     -0.552715     -3.282220
  H       1.553414      1.408801     -0.693340
  H       3.826205      0.339394     -1.750544
  H       3.342765     -0.960929     -3.964041
  H      -0.868288     -3.165416     -0.153736
  H      -0.664075     -2.399778      2.449299
  H       1.884585     -1.623105      2.876912
  O       1.289774      2.460423      0.280237
  O       0.536477      0.893918      1.679422
  C       0.895240      2.102788      1.384729
  C       0.826905      3.064749      2.538137
  H       0.781443      4.089489      2.179570
  H       1.729817      2.962072      3.143181
  H      -0.021081      2.859117      3.188170
  H       3.237660     -1.902722      0.585022
  H       1.536030     -2.852247     -1.294927
39
Coordinates from ORCA-job reaction4-IEIP_ts_guess_scan_1-3_orca E -1288.397132497953
  Ir      0.581680     -0.729231      0.463396
  C       0.024511     -2.809012      0.338584
  C       0.118150     -2.363845      1.708959
  C       2.194988     -2.144679      0.743077
  C       1.284388     -2.645548     -0.262340
  C       1.489275     -2.012492      1.950794
  N      -1.043027      0.179087     -0.517266
  C      -2.313421      0.520998      0.140873
  C      -3.136187      1.546871     -0.620925
  H      -3.969868      1.862910      0.004502
  H      -3.570454      1.146399     -1.538486
  H      -2.558385      2.439307     -0.863635
  C      -3.108987     -0.750725      0.407904
  H      -2.019493      0.954942      1.098188
  H      -4.022158     -0.502740      0.946714
  H      -3.395343     -1.242275     -0.522867
  H      -2.555974     -1.460319      1.021720
  C      -0.828133      0.384879     -1.757946
  C       0.526372      0.149691     -2.217084
  H      -1.598627      0.752036     -2.430016
  C       1.636067      0.550552     -1.483243
  C       2.835305      0.120614     -2.121665
  S       0.940177     -0.687174     -3.649449
  C       2.612851     -0.545824     -3.285063
  H       1.549952      1.411967     -0.696189
  H       3.824840      0.349137     -1.753318
  H       3.344474     -0.948139     -3.969376
  H      -0.870197     -3.166522     -0.150513
  H      -0.665164     -2.399370      2.452021
  H       1.884803     -1.626739      2.879403
  O       1.280199      2.462271      0.277135
  O       0.540507      0.892909      1.680692
  C       0.894701      2.102558      1.384292
  C       0.827038      3.065162      2.537177
  H       0.774583      4.089398      2.178128
  H       1.733457      2.967463      3.137785
  H      -0.016645      2.855703      3.191595
  H       3.238113     -1.911531      0.588464
  H       1.535003     -2.859500     -1.291285
39
Coordinates from ORCA-job reaction4-IEIP_ts_guess_scan_1-3_orca E -1288.397138089703
  Ir      0.581421     -0.728408      0.463241
  C       0.025271     -2.808197      0.337977
  C       0.118337     -2.363317      1.708426
  C       2.195346     -2.143040      0.743042
  C       1.285233     -2.644104     -0.262696
  C       1.489200     -2.011334      1.950593
  N      -1.043037      0.178825     -0.517349
  C      -2.313525      0.520221      0.140985
  C      -3.136383      1.546635     -0.620013
  H      -3.969980      1.862227      0.005757
  H      -3.570812      1.146856     -1.537796
  H      -2.558620      2.439247     -0.862160
  C      -3.109185     -0.751640      0.407137
  H      -2.019647      0.953564      1.098584
  H      -4.022428     -0.503931      0.945950
  H      -3.395418     -1.242619     -0.523974
  H      -2.556333     -1.461652      1.020615
  C      -0.828574      0.384626     -1.758044
  C       0.525803      0.150589     -2.217881
  H      -1.599561      0.751321     -2.429799
  C       1.635445      0.551029     -1.483822
  C       2.834786      0.119208     -2.120618
  S       0.940104     -0.680903     -3.653058
  C       2.612433     -0.547949     -3.283682
  H       1.549389      1.411423     -0.695671
  H       3.824261      0.344552     -1.750168
  H       3.344060     -0.953136     -3.966301
  H      -0.869169     -3.165922     -0.151463
  H      -0.665176     -2.399231      2.451254
  H       1.884324     -1.625500      2.879342
  O       1.280384      2.462619      0.276897
  O       0.539562      0.893438      1.680236
  C       0.893401      2.103080      1.383657
  C       0.827973      3.065313      2.537004
  H       0.776525      4.089761      2.178441
  H       1.734776      2.966200      3.136825
  H      -0.015415      2.856634      3.192055
  H       3.238443     -1.909475      0.588832
  H       1.536154     -2.857820     -1.291616
39
Coordinates from ORCA-job reaction4-IEIP_ts_guess_scan_1-3_orca E -1288.397139674734
  Ir      0.580700     -0.727772      0.464033
  C       0.025514     -2.807414      0.337413
  C       0.117586     -2.363264      1.708111
  C       2.195082     -2.141645      0.743958
  C       1.285767     -2.642536     -0.262550
  C       1.488127     -2.010805      1.951174
  N      -1.042456      0.178382     -0.516641
  C      -2.313054      0.519772      0.141660
  C      -3.135523      1.547175     -0.618507
  H      -3.968852      1.862747      0.007643
  H      -3.570383      1.148358     -1.536495
  H      -2.557322      2.439653     -0.860097
  C      -3.109315     -0.751927      0.406800
  H      -2.019186      0.952330      1.099610
  H      -4.022606     -0.504187      0.945527
  H      -3.395487     -1.242194     -0.524703
  H      -2.556944     -1.462596      1.019970
  C      -0.828150      0.383407     -1.757444
  C       0.525957      0.149204     -2.217868
  H      -1.599543      0.749056     -2.429275
  C       1.635950      0.549186     -1.483993
  C       2.835142      0.118163     -2.121441
  S       0.939942     -0.680908     -3.653807
  C       2.612443     -0.546963     -3.285659
  H       1.550063      1.408928     -0.695064
  H       3.824698      0.342981     -1.750902
  H       3.343809     -0.950929     -3.969284
  H      -0.868517     -3.165119     -0.152793
  H      -0.666393     -2.399697      2.450414
  H       1.882568     -1.625195      2.880307
  O       1.281817      2.460755      0.277032
  O       0.538250      0.893257      1.680604
  C       0.893384      2.102324      1.383676
  C       0.827318      3.065642      2.536120
  H       0.776646      4.089795      2.176627
  H       1.733556      2.966632      3.136818
  H      -0.016728      2.857912      3.190632
  H       3.238207     -1.907645      0.590572
  H       1.537300     -2.855673     -1.291438
