39
Coordinates from ORCA-job reaction4-IEIP_ts_guess_scan_6-7_orca E -1288.399357911210
  Ir      0.599143     -0.715591      0.445097
  C       0.051489     -2.804360      0.353420
  C       0.093052     -2.347049      1.718562
  C       2.204329     -2.120691      0.818745
  C       1.332288     -2.644410     -0.207909
  C       1.447581     -1.971549      1.996634
  N      -1.051425      0.153822     -0.523375
  C      -2.323202      0.450882      0.155274
  C      -3.124267      1.558662     -0.510748
  H      -3.950953      1.836559      0.141667
  H      -3.568022      1.251997     -1.459157
  H      -2.524881      2.454522     -0.675010
  C      -3.139842     -0.828656      0.293017
  H      -2.033644      0.787543      1.151947
  H      -4.053677     -0.621493      0.847953
  H      -3.424964     -1.223698     -0.682915
  H      -2.599359     -1.602496      0.835988
  C      -0.867204      0.381077     -1.766501
  C       0.477700      0.178562     -2.242913
  H      -1.658473      0.742218     -2.416902
  C       1.558509      0.380174     -1.390085
  C       2.773129      0.009062     -2.035820
  S       0.933624     -0.411658     -3.773193
  C       2.586585     -0.428514     -3.310715
  H       1.512729      1.302919     -0.605509
  H       3.750329      0.116855     -1.587799
  H       3.336508     -0.739660     -4.022334
  H      -0.821272     -3.176499     -0.163721
  H      -0.715868     -2.377630      2.433319
  H       1.806400     -1.565688      2.931683
  O       1.386737      2.433829      0.210071
  O       0.538808      0.943037      1.633856
  C       0.950694      2.120607      1.320285
  C       0.903903      3.127854      2.433669
  H       0.876287      4.139572      2.038335
  H       1.808175      3.030237      3.037671
  H       0.054792      2.959842      3.092580
  H       3.254967     -1.898325      0.707335
  H       1.618666     -2.882675     -1.221759
39
Coordinates from ORCA-job reaction4-IEIP_ts_guess_scan_6-7_orca E -1288.396443923679
  Ir      0.604773     -0.693300      0.433536
  C       0.085312     -2.789050      0.303224
  C       0.110392     -2.356629      1.676480
  C       2.224996     -2.084858      0.797241
  C       1.368082     -2.602292     -0.245080
  C       1.456889     -1.966335      1.971399
  N      -1.058577      0.167899     -0.527313
  C      -2.325064      0.473566      0.156057
  C      -3.133517      1.567155     -0.524235
  H      -3.956643      1.854637      0.128510
  H      -3.582450      1.242206     -1.464096
  H      -2.537610      2.461429     -0.708615
  C      -3.136715     -0.805652      0.322626
  H      -2.028475      0.828445      1.144319
  H      -4.046561     -0.591572      0.881450
  H      -3.428619     -1.218316     -0.643953
  H      -2.589220     -1.568360      0.874334
  C      -0.884616      0.367422     -1.777336
  C       0.459183      0.151550     -2.249832
  H      -1.680652      0.706312     -2.433816
  C       1.536769      0.414227     -1.408676
  C       2.751936     -0.001696     -2.027179
  S       0.917186     -0.536029     -3.737692
  C       2.567943     -0.528603     -3.267987
  H       1.496431      1.424190     -0.723679
  H       3.729074      0.142843     -1.589585
  H       3.319634     -0.886311     -3.955332
  H      -0.778219     -3.164080     -0.227132
  H      -0.703191     -2.411761      2.384338
  H       1.802797     -1.572216      2.916265
  O       1.480115      2.394518      0.285379
  O       0.507374      0.938862      1.653126
  C       0.968356      2.103229      1.369852
  C       0.886137      3.114499      2.477313
  H       0.912537      4.125625      2.080252
  H       1.749702      2.991292      3.133880
  H      -0.005208      2.973726      3.084675
  H       3.273565     -1.847576      0.698405
  H       1.665524     -2.819807     -1.260386
39
Coordinates from ORCA-job reaction4-IEIP_ts_guess_scan_6-7_orca E -1288.399488780225
  Ir      0.601273     -0.712791      0.449185
  C       0.062583     -2.805626      0.347484
  C       0.094230     -2.356303      1.715145
  C       2.209573     -2.113741      0.827873
  C       1.346083     -2.637058     -0.206010
  C       1.444547     -1.973942      2.002075
  N      -1.050521      0.154944     -0.520887
  C      -2.320374      0.456007      0.157726
  C      -3.119172      1.562646     -0.512818
  H      -3.946119      1.844157      0.137691
  H      -3.562124      1.253125     -1.460709
  H      -2.518263      2.457005     -0.679765
  C      -3.138151     -0.822257      0.299630
  H      -2.029416      0.795145      1.153140
  H      -4.051034     -0.612834      0.855235
  H      -3.424870     -1.219371     -0.674987
  H      -2.597390     -1.595208      0.843709
  C      -0.867949      0.382892     -1.765914
  C       0.476566      0.181414     -2.248829
  H      -1.660265      0.748281     -2.412609
  C       1.560728      0.368033     -1.394790
  C       2.770600     -0.007054     -2.049582
  S       0.923462     -0.408346     -3.781542
  C       2.577736     -0.437056     -3.325332
  H       1.534375      1.310525     -0.618769
  H       3.750363      0.094255     -1.605722
  H       3.323510     -0.748160     -4.041216
  H      -0.805335     -3.179834     -0.176268
  H      -0.718200     -2.395446      2.425355
  H       1.795833     -1.570933      2.941185
  O       1.380943      2.421181      0.219623
  O       0.523928      0.941446      1.644562
  C       0.942837      2.115289      1.331989
  C       0.891524      3.128890      2.439063
  H       0.866776      4.138499      2.038072
  H       1.792661      3.033820      3.048064
  H       0.038942      2.965096      3.094390
  H       3.260019     -1.887125      0.724279
  H       1.639463     -2.870374     -1.218986
39
Coordinates from ORCA-job reaction4-IEIP_ts_guess_scan_6-7_orca E -1288.397740664473
  Ir      0.587906     -0.720112      0.449850
  C       0.030010     -2.809936      0.399198
  C       0.069131     -2.329401      1.755659
  C       2.184163     -2.126061      0.858205
  C       1.313367     -2.666262     -0.160643
  C       1.423177     -1.952064      2.030334
  N      -1.065399      0.134452     -0.536143
  C      -2.339929      0.425678      0.139157
  C      -3.147863      1.525092     -0.532487
  H      -3.978160      1.799216      0.116942
  H      -3.587023      1.211571     -1.480789
  H      -2.554844      2.424837     -0.698710
  C      -3.146937     -0.859554      0.280426
  H      -2.054180      0.767647      1.135043
  H      -4.062283     -0.657992      0.834942
  H      -3.428994     -1.259329     -0.694454
  H      -2.599965     -1.627624      0.825197
  C      -0.885109      0.363345     -1.781245
  C       0.461963      0.189999     -2.264100
  H      -1.680471      0.725965     -2.425548
  C       1.536510      0.364024     -1.397792
  C       2.759458      0.057064     -2.063152
  S       0.928392     -0.321695     -3.818467
  C       2.582511     -0.318819     -3.358627
  H       1.471718      1.259250     -0.573041
  H       3.734308      0.163897     -1.609737
  H       3.338919     -0.575100     -4.085035
  H      -0.842544     -3.188434     -0.113691
  H      -0.741826     -2.344860      2.468458
  H       1.780251     -1.530252      2.958963
  O       1.625482      2.367143      0.268939
  O       0.527640      0.964500      1.611963
  C       1.049545      2.104926      1.329300
  C       0.968727      3.130205      2.423441
  H       1.056906      4.134916      2.019131
  H       1.798483      2.975262      3.115913
  H       0.047928      3.035651      2.994771
  H       3.236418     -1.911668      0.747026
  H       1.601984     -2.926286     -1.168457
39
Coordinates from ORCA-job reaction4-IEIP_ts_guess_scan_6-7_orca E -1288.399563104251
  Ir      0.595775     -0.711206      0.450501
  C       0.048764     -2.803215      0.371391
  C       0.081232     -2.340684      1.734246
  C       2.197903     -2.114280      0.845674
  C       1.333190     -2.645222     -0.183068
  C       1.432270     -1.959495      2.017733
  N      -1.054447      0.151558     -0.524784
  C      -2.329997      0.437702      0.150567
  C      -3.135554      1.543713     -0.513045
  H      -3.967050      1.812782      0.136953
  H      -3.572872      1.238938     -1.465053
  H      -2.541489      2.444417     -0.670051
  C      -3.138684     -0.847879      0.278738
  H      -2.045904      0.770543      1.150061
  H      -4.054935     -0.650378      0.833229
  H      -3.419208     -1.238616     -0.700242
  H      -2.593590     -1.621342      0.817664
  C      -0.869388      0.392085     -1.767341
  C       0.474231      0.198263     -2.254285
  H      -1.662839      0.759360     -2.411345
  C       1.558823      0.360932     -1.396669
  C       2.767413     -0.002811     -2.059634
  S       0.919812     -0.347722     -3.803154
  C       2.573322     -0.399402     -3.346025
  H       1.540137      1.292146     -0.604800
  H       3.747318      0.082581     -1.612665
  H       3.318116     -0.695664     -4.069134
  H      -0.820235     -3.179522     -0.149039
  H      -0.731682     -2.369898      2.444341
  H       1.784337     -1.547952      2.952855
  O       1.465450      2.410782      0.233695
  O       0.521605      0.956679      1.632076
  C       0.980218      2.118335      1.330527
  C       0.925529      3.134208      2.435008
  H       0.941852      4.143650      2.033219
  H       1.804983      3.013889      3.070650
  H       0.049321      2.995577      3.064432
  H       3.249407     -1.893218      0.740808
  H       1.626236     -2.890446     -1.193297
39
Coordinates from ORCA-job reaction4-IEIP_ts_guess_scan_6-7_orca E -1288.399596264586
  Ir      0.601978     -0.718248      0.451815
  C       0.046290     -2.808352      0.374968
  C       0.076347     -2.344670      1.737221
  C       2.196715     -2.127771      0.854726
  C       1.333016     -2.656349     -0.175934
  C       1.427787     -1.968003      2.024046
  N      -1.048658      0.150261     -0.525689
  C      -2.322603      0.439714      0.151701
  C      -3.126198      1.548644     -0.509363
  H      -3.955790      1.819282      0.142397
  H      -3.566115      1.246070     -1.460865
  H      -2.530008      2.447909     -0.666419
  C      -3.135724     -0.843129      0.280227
  H      -2.036119      0.771078      1.151088
  H      -4.050660     -0.642681      0.835869
  H      -3.418792     -1.232426     -0.698591
  H      -2.592889     -1.618710      0.818130
  C      -0.866775      0.388688     -1.769287
  C       0.475294      0.195730     -2.257402
  H      -1.661367      0.756017     -2.411892
  C       1.557135      0.357386     -1.397419
  C       2.768043      0.003766     -2.061512
  S       0.922375     -0.350335     -3.805533
  C       2.577013     -0.384232     -3.351244
  H       1.536477      1.298876     -0.614304
  H       3.747371      0.094608     -1.614350
  H       3.324096     -0.669341     -4.076436
  H      -0.822498     -3.181883     -0.147742
  H      -0.738853     -2.369863      2.444846
  H       1.778556     -1.556524      2.959683
  O       1.422683      2.420498      0.215766
  O       0.530498      0.950334      1.632802
  C       0.965377      2.118471      1.322501
  C       0.920066      3.132688      2.428785
  H       0.911420      4.142620      2.027981
  H       1.815555      3.025525      3.044044
  H       0.060659      2.979740      3.077767
  H       3.249589     -1.911821      0.753209
  H       1.628080     -2.904376     -1.184850
39
Coordinates from ORCA-job reaction4-IEIP_ts_guess_scan_6-7_orca E -1288.399622450572
  Ir      0.602532     -0.719279      0.453114
  C       0.047230     -2.809145      0.376692
  C       0.073794     -2.345058      1.738679
  C       2.196372     -2.128095      0.860950
  C       1.335339     -2.657286     -0.171400
  C       1.424208     -1.967667      2.028273
  N      -1.046837      0.147841     -0.525014
  C      -2.320322      0.437186      0.153434
  C      -3.122483      1.549145     -0.504273
  H      -3.951337      1.819251      0.148638
  H      -3.563349      1.249816     -1.456352
  H      -2.524999      2.447920     -0.659171
  C      -3.135976     -0.844421      0.278807
  H      -2.033251      0.765615      1.153645
  H      -4.050632     -0.643497      0.834739
  H      -3.419640     -1.230853     -0.700973
  H      -2.594905     -1.622363      0.814957
  C      -0.866091      0.388607     -1.768350
  C       0.475195      0.198250     -2.259516
  H      -1.661658      0.757819     -2.408685
  C       1.557652      0.351392     -1.399017
  C       2.768098      0.000600     -2.065419
  S       0.922483     -0.324009     -3.815495
  C       2.575770     -0.378439     -3.357751
  H       1.538844      1.292670     -0.613373
  H       3.747358      0.081659     -1.616255
  H       3.321818     -0.663550     -4.084012
  H      -0.820146     -3.183070     -0.148057
  H      -0.743194     -2.369761      2.444236
  H       1.772540     -1.555365      2.964466
  O       1.425674      2.416538      0.213739
  O       0.530775      0.949321      1.632084
  C       0.966166      2.116409      1.320452
  C       0.916444      3.134230      2.423270
  H       0.906678      4.142906      2.019356
  H       1.810888      3.030665      3.040669
  H       0.055957      2.981597      3.070909
  H       3.249569     -1.912450      0.762183
  H       1.632806     -2.905940     -1.179442
39
Coordinates from ORCA-job reaction4-IEIP_ts_guess_scan_6-7_orca E -1288.399648791224
  Ir      0.600426     -0.719108      0.457136
  C       0.047962     -2.809148      0.379703
  C       0.068167     -2.344895      1.741593
  C       2.194380     -2.125452      0.872345
  C       1.338376     -2.656081     -0.163252
  C       1.416619     -1.965429      2.036338
  N      -1.045910      0.144843     -0.522999
  C      -2.320063      0.431889      0.155335
  C      -3.120453      1.547953     -0.497731
  H      -3.949518      1.815784      0.155852
  H      -3.560908      1.253648     -1.451542
  H      -2.521845      2.446793     -0.647888
  C      -3.137642     -0.849200      0.273532
  H      -2.034120      0.755335      1.157449
  H      -4.052945     -0.649555      0.828847
  H      -3.420212     -1.230747     -0.708472
  H      -2.598649     -1.630473      0.806949
  C      -0.865483      0.389100     -1.765848
  C       0.474409      0.199769     -2.261663
  H      -1.662594      0.758780     -2.403988
  C       1.559005      0.338101     -1.400932
  C       2.768124     -0.005339     -2.073362
  S       0.919074     -0.300695     -3.825299
  C       2.573288     -0.362009     -3.371804
  H       1.543679      1.277481     -0.609891
  H       3.747977      0.065253     -1.623841
  H       3.317762     -0.637346     -4.103438
  H      -0.816651     -3.184292     -0.148756
  H      -0.751862     -2.369853      2.443572
  H       1.760430     -1.552014      2.973732
  O       1.446524      2.403320      0.216576
  O       0.528154      0.950861      1.633362
  C       0.972930      2.113227      1.320375
  C       0.918137      3.138723      2.415966
  H       0.917071      4.144780      2.005525
  H       1.806504      3.034764      3.042040
  H       0.051085      2.994502      3.056745
  H       3.247879     -1.909138      0.778391
  H       1.640262     -2.904942     -1.169918
39
Coordinates from ORCA-job reaction4-IEIP_ts_guess_scan_6-7_orca E -1288.399652867093
  Ir      0.601212     -0.721100      0.459601
  C       0.046681     -2.810649      0.384012
  C       0.062244     -2.344405      1.745280
  C       2.192282     -2.128624      0.883677
  C       1.339498     -2.660142     -0.154170
  C       1.409881     -1.965699      2.044298
  N      -1.044640      0.143344     -0.522868
  C      -2.319816      0.425990      0.155874
  C      -3.119639      1.546731     -0.490174
  H      -3.949114      1.810150      0.164691
  H      -3.559516      1.258955     -1.446207
  H      -2.520805      2.446468     -0.633865
  C      -3.137773     -0.855732      0.264041
  H      -2.035430      0.742526      1.160579
  H      -4.053844     -0.659753      0.819403
  H      -3.418997     -1.230406     -0.720990
  H      -2.599729     -1.640953      0.792669
  C      -0.865567      0.391462     -1.765421
  C       0.472764      0.205129     -2.264555
  H      -1.664591      0.760629     -2.401412
  C       1.557288      0.331900     -1.402142
  C       2.766058     -0.007433     -2.076410
  S       0.917553     -0.278578     -3.833328
  C       2.570994     -0.349063     -3.379110
  H       1.544262      1.272565     -0.610007
  H       3.745691      0.055136     -1.625326
  H       3.315358     -0.618036     -4.113195
  H      -0.816174     -3.185846     -0.147327
  H      -0.760535     -2.367062      2.444103
  H       1.750569     -1.550906      2.982250
  O       1.452458      2.401871      0.212333
  O       0.532851      0.953932      1.633336
  C       0.977654      2.115059      1.316786
  C       0.924317      3.144213      2.408962
  H       0.921778      4.148899      1.995236
  H       1.814087      3.042871      3.033455
  H       0.058677      3.001424      3.051950
  H       3.246558     -1.914384      0.793927
  H       1.644825     -2.911292     -1.159215
39
Coordinates from ORCA-job reaction4-IEIP_ts_guess_scan_6-7_orca E -1288.399656453954
  Ir      0.602231     -0.722560      0.460649
  C       0.048583     -2.812245      0.383259
  C       0.059136     -2.345952      1.744659
  C       2.192371     -2.129628      0.890879
  C       1.343367     -2.661428     -0.149977
  C       1.405569     -1.966833      2.048525
  N      -1.043261      0.142355     -0.522314
  C      -2.318005      0.424858      0.157543
  C      -3.116001      1.549436     -0.484269
  H      -3.944623      1.812187      0.171933
  H      -3.556886      1.265735     -1.441032
  H      -2.515408      2.448398     -0.625250
  C      -3.138066     -0.855933      0.260834
  H      -2.033202      0.737258      1.163439
  H      -4.053830     -0.660673      0.816994
  H      -3.419925     -1.226356     -0.725627
  H      -2.601267     -1.644150      0.786219
  C      -0.865760      0.390178     -1.765221
  C       0.471531      0.204572     -2.265763
  H      -1.665952      0.758541     -2.400222
  C       1.556263      0.328502     -1.403238
  C       2.764916     -0.007231     -2.078870
  S       0.915888     -0.276137     -3.835707
  C       2.569306     -0.345505     -3.382555
  H       1.543228      1.271005     -0.611992
  H       3.744817      0.055448     -1.628416
  H       3.313662     -0.610795     -4.117994
  H      -0.812025     -3.187955     -0.151318
  H      -0.766192     -2.368705      2.440478
  H       1.742737     -1.551759      2.987630
  O       1.449802      2.401602      0.208388
  O       0.534683      0.953321      1.632672
  C       0.977896      2.114519      1.314152
  C       0.923365      3.145300      2.404666
  H       0.915952      4.149253      1.989202
  H       1.815183      3.048410      3.026908
  H       0.059959      3.000242      3.050111
  H       3.247014     -1.915583      0.805302
  H       1.652316     -2.912498     -1.153939
39
Coordinates from ORCA-job reaction4-IEIP_ts_guess_scan_6-7_orca E -1288.399658482467
  Ir      0.602836     -0.723171      0.461436
  C       0.052994     -2.813781      0.380119
  C       0.055370     -2.347827      1.741889
  C       2.193134     -2.127902      0.900278
  C       1.350550     -2.660701     -0.145346
  C       1.399490     -1.966889      2.053454
  N      -1.042682      0.141219     -0.521284
  C      -2.316976      0.423163      0.159816
  C      -3.112129      1.552980     -0.476488
  H      -3.939904      1.814839      0.181124
  H      -3.553832      1.274858     -1.434479
  H      -2.508943      2.450785     -0.613485
  C      -3.139540     -0.856620      0.255703
  H      -2.031997      0.729667      1.167456
  H      -4.054928     -0.663100      0.813136
  H      -3.422174     -1.220668     -0.732915
  H      -2.604021     -1.649078      0.775987
  C      -0.867140      0.387825     -1.764774
  C       0.469220      0.202973     -2.266559
  H      -1.668784      0.754678     -2.398858
  C       1.554580      0.326073     -1.404642
  C       2.762855     -0.007852     -2.081119
  S       0.913090     -0.276834     -3.837197
  C       2.566372     -0.344909     -3.385207
  H       1.541448      1.270381     -0.614664
  H       3.743165      0.055469     -1.631669
  H       3.310535     -0.608191     -4.121590
  H      -0.803730     -3.191153     -0.159463
  H      -0.773768     -2.372079      2.433132
  H       1.730759     -1.551490      2.994523
  O       1.445213      2.402477      0.203319
  O       0.535495      0.953811      1.631298
  C       0.975309      2.115642      1.310032
  C       0.924908      3.146436      2.400714
  H       0.912493      4.150230      1.984954
  H       1.820861      3.052071      3.017385
  H       0.065872      2.999302      3.051442
  H       3.248041     -1.912808      0.821080
  H       1.665329     -2.910635     -1.147798
39
Coordinates from ORCA-job reaction4-IEIP_ts_guess_scan_6-7_orca E -1288.399661781192
  Ir      0.603748     -0.723355      0.462058
  C       0.060355     -2.815634      0.374023
  C       0.050564     -2.350609      1.736423
  C       2.194744     -2.124218      0.912832
  C       1.361864     -2.658513     -0.139843
  C       1.390997     -1.966780      2.059501
  N      -1.042573      0.140253     -0.518900
  C      -2.316400      0.420433      0.163871
  C      -3.107069      1.558314     -0.463789
  H      -3.934057      1.818276      0.195548
  H      -3.549251      1.289145     -1.424072
  H      -2.500004      2.454504     -0.593836
  C      -3.142287     -0.858110      0.247311
  H      -2.031596      0.717314      1.174352
  H      -4.057022     -0.668330      0.807130
  H      -3.426183     -1.211393     -0.744855
  H      -2.608115     -1.657317      0.758671
  C      -0.869646      0.385577     -1.763115
  C       0.465675      0.201048     -2.266806
  H      -1.673183      0.750725     -2.395846
  C       1.552659      0.323751     -1.406663
  C       2.759685     -0.010780     -2.084432
  S       0.907758     -0.279249     -3.838209
  C       2.561077     -0.347263     -3.388555
  H       1.540611      1.268957     -0.617471
  H       3.740818      0.052260     -1.636774
  H       3.304245     -0.610450     -4.126012
  H      -0.790507     -3.195684     -0.172884
  H      -0.784056     -2.377781      2.420950
  H       1.713343     -1.551205      3.003607
  O       1.445581      2.402562      0.198562
  O       0.537508      0.955580      1.629437
  C       0.977552      2.116910      1.306265
  C       0.925802      3.149739      2.394992
  H       0.906689      4.152512      1.976948
  H       1.824778      3.061578      3.008162
  H       0.070090      2.999591      3.049349
  H       3.249876     -1.907127      0.842986
  H       1.685297     -2.906040     -1.140178
39
Coordinates from ORCA-job reaction4-IEIP_ts_guess_scan_6-7_orca E -1288.399665235361
  Ir      0.605007     -0.722830      0.462614
  C       0.070059     -2.817285      0.365891
  C       0.044420     -2.353767      1.728901
  C       2.196582     -2.118427      0.928598
  C       1.376576     -2.654810     -0.132991
  C       1.379639     -1.965912      2.066833
  N      -1.042777      0.139374     -0.515754
  C      -2.316207      0.417096      0.168750
  C      -3.101791      1.564116     -0.448775
  H      -3.928261      1.821518      0.212206
  H      -3.544001      1.305468     -1.411883
  H      -2.490462      2.458579     -0.570281
  C      -3.145729     -0.859987      0.237682
  H      -2.031710      0.702706      1.182453
  H      -4.059125     -0.675254      0.801357
  H      -3.432031     -1.199947     -0.758448
  H      -2.612310     -1.667165      0.737341
  C      -0.872605      0.383527     -1.760649
  C       0.461827      0.198592     -2.266888
  H      -1.677895      0.747624     -2.391778
  C       1.551052      0.321071     -1.409350
  C       2.756287     -0.014206     -2.090005
  S       0.900407     -0.281902     -3.839447
  C       2.554292     -0.351741     -3.393374
  H       1.540943      1.265929     -0.620101
  H       3.738648      0.048292     -1.645007
  H       3.295631     -0.616436     -4.132137
  H      -0.773229     -3.200773     -0.190260
  H      -0.797154     -2.385063      2.404702
  H       1.690134     -1.550104      3.014834
  O       1.448009      2.401057      0.194053
  O       0.539112      0.957760      1.627371
  C       0.979496      2.118351      1.302178
  C       0.927234      3.153534      2.388724
  H       0.901599      4.155155      1.968186
  H       1.829505      3.071568      2.997907
  H       0.075114      3.000948      3.047122
  H       3.251833     -1.898578      0.870691
  H       1.711255     -2.898887     -1.130525
39
Coordinates from ORCA-job reaction4-IEIP_ts_guess_scan_6-7_orca E -1288.399665909141
  Ir      0.606769     -0.722652      0.462701
  C       0.078856     -2.818846      0.358598
  C       0.038070     -2.356509      1.721811
  C       2.197754     -2.113569      0.943839
  C       1.390196     -2.652196     -0.125895
  C       1.368016     -1.964911      2.073773
  N      -1.042754      0.138309     -0.512961
  C      -2.315790      0.413630      0.173218
  C      -3.097166      1.568607     -0.434884
  H      -3.923469      1.823137      0.227413
  H      -3.539092      1.319637     -1.400636
  H      -2.482493      2.461830     -0.548226
  C      -3.148676     -0.861892      0.229475
  H      -2.031418      0.689236      1.189660
  H      -4.060111     -0.681915      0.797819
  H      -3.438395     -1.189206     -0.769903
  H      -2.615470     -1.676406      0.717435
  C      -0.874936      0.382502     -1.758114
  C       0.458729      0.197022     -2.267171
  H      -1.681402      0.746912     -2.387588
  C       1.549897      0.318787     -1.412104
  C       2.753315     -0.018038     -2.095735
  S       0.893178     -0.282113     -3.841128
  C       2.548176     -0.354474     -3.398770
  H       1.542582      1.262964     -0.622467
  H       3.736725      0.042748     -1.652815
  H       3.287631     -0.620234     -4.139016
  H      -0.757337     -3.205311     -0.206120
  H      -0.810124     -2.391209      2.389131
  H       1.667020     -1.548498      3.025233
  O       1.452052      2.399450      0.190063
  O       0.541536      0.959510      1.625151
  C       0.982033      2.119491      1.298243
  C       0.928187      3.157142      2.382353
  H       0.896281      4.157552      1.959295
  H       1.833195      3.081515      2.988287
  H       0.079098      3.002184      3.044043
  H       3.253097     -1.891653      0.897262
  H       1.735612     -2.893341     -1.120528
39
Coordinates from ORCA-job reaction4-IEIP_ts_guess_scan_6-7_orca E -1288.399665338671
  Ir      0.608246     -0.723047      0.462770
  C       0.083990     -2.820062      0.354352
  C       0.033419     -2.358454      1.717547
  C       2.197987     -2.111442      0.954137
  C       1.398536     -2.651534     -0.120748
  C       1.359855     -1.964560      2.078485
  N      -1.042576      0.137405     -0.511557
  C      -2.315296      0.411486      0.175694
  C      -3.094672      1.570633     -0.427101
  H      -3.921126      1.823081      0.235808
  H      -3.536208      1.327136     -1.394411
  H      -2.478624      2.463509     -0.535579
  C      -3.150184     -0.862989      0.225406
  H      -2.030836      0.681884      1.193495
  H      -4.059934     -0.685558      0.797215
  H      -3.442770     -1.182969     -0.775507
  H      -2.616927     -1.681747      0.706210
  C      -0.876044      0.382350     -1.756635
  C       0.457078      0.196412     -2.267693
  H      -1.682912      0.747686     -2.385094
  C       1.549270      0.316920     -1.413908
  C       2.751662     -0.019425     -2.100089
  S       0.888473     -0.281066     -3.842653
  C       2.544559     -0.354698     -3.402956
  H       1.543932      1.260967     -0.624020
  H       3.735678      0.040523     -1.658386
  H       3.282786     -0.620122     -4.144519
  H      -0.747756     -3.208067     -0.215838
  H      -0.819100     -2.394834      2.379252
  H       1.651403     -1.547556      3.032025
  O       1.455269      2.398134      0.187763
  O       0.543859      0.960185      1.624097
  C       0.984054      2.119841      1.295932
  C       0.929086      3.159309      2.378207
  H       0.892948      4.158824      1.953345
  H       1.835895      3.088033      2.981967
  H       0.082028      3.002887      3.042123
  H       3.253445     -1.888766      0.914954
  H       1.750878     -2.891120     -1.113351
39
Coordinates from ORCA-job reaction4-IEIP_ts_guess_scan_6-7_orca E -1288.399664793093
  Ir      0.608980     -0.723484      0.462679
  C       0.086014     -2.820660      0.352317
  C       0.030698     -2.359453      1.715487
  C       2.197678     -2.110936      0.959223
  C       1.402180     -2.651699     -0.118167
  C       1.355428     -1.964506      2.080730
  N      -1.042411      0.136880     -0.511318
  C      -2.314847      0.410706      0.176560
  C      -3.094094      1.570839     -0.424533
  H      -3.920714      1.822161      0.238602
  H      -3.535453      1.329021     -1.392341
  H      -2.478140      2.463980     -0.531370
  C      -3.150345     -0.863405      0.224930
  H      -2.030065      0.679960      1.194588
  H      -4.059020     -0.686636      0.798648
  H      -3.444738     -1.181033     -0.776197
  H      -2.616845     -1.683587      0.703033
  C      -0.876370      0.382569     -1.756237
  C       0.456444      0.196596     -2.268271
  H      -1.683206      0.748722     -2.384281
  C       1.548907      0.315977     -1.414830
  C       2.750929     -0.020007     -2.102005
  S       0.886563     -0.279324     -3.843795
  C       2.543248     -0.353501     -3.405159
  H       1.544728      1.260233     -0.624849
  H       3.735045      0.039187     -1.660408
  H       3.280987     -0.618044     -4.147505
  H      -0.743666     -3.209134     -0.220549
  H      -0.823981     -2.396264      2.374379
  H       1.643399     -1.547132      3.035206
  O       1.456978      2.397660      0.186668
  O       0.545435      0.960137      1.623583
  C       0.985325      2.119704      1.294817
  C       0.929919      3.159972      2.376274
  H       0.891496      4.159058      1.950594
  H       1.837744      3.090884      2.978758
  H       0.084035      3.002717      3.041477
  H       3.253252     -1.888248      0.923723
  H       1.757854     -2.890722     -1.109721
39
Coordinates from ORCA-job reaction4-IEIP_ts_guess_scan_6-7_orca E -1288.399665124486
  Ir      0.608990     -0.723703      0.462600
  C       0.086324     -2.820857      0.351611
  C       0.029773     -2.359897      1.714841
  C       2.197382     -2.110969      0.960451
  C       1.402923     -2.651860     -0.117647
  C       1.354069     -1.964651      2.081191
  N      -1.042486      0.136748     -0.511513
  C      -2.314784      0.410797      0.176510
  C      -3.094541      1.570365     -0.424988
  H      -3.921306      1.821402      0.238080
  H      -3.535792      1.328141     -1.392745
  H      -2.479120      2.463855     -0.531997
  C      -3.150132     -0.863366      0.225900
  H      -2.029768      0.680848      1.194274
  H      -4.058469     -0.686309      0.800069
  H      -3.445080     -1.181430     -0.774920
  H      -2.616458     -1.683369      0.704086
  C      -0.876399      0.382756     -1.756340
  C       0.456341      0.196769     -2.268484
  H      -1.683072      0.749207     -2.384427
  C       1.548781      0.315745     -1.414983
  C       2.750825     -0.019685     -2.102358
  S       0.886357     -0.278747     -3.844106
  C       2.543163     -0.352794     -3.405608
  H       1.544839      1.260215     -0.625048
  H       3.734885      0.039593     -1.660644
  H       3.280818     -0.616811     -4.148223
  H      -0.742846     -3.209335     -0.221994
  H      -0.825489     -2.396704      2.372973
  H       1.641156     -1.547234      3.035918
  O       1.457388      2.397620      0.186532
  O       0.545956      0.960003      1.623576
  C       0.985851      2.119538      1.294716
  C       0.930754      3.159882      2.376127
  H       0.891671      4.158897      1.950336
  H       1.839032      3.091236      2.977979
  H       0.085395      3.002413      3.041943
  H       3.253009     -1.888379      0.925984
  H       1.759435     -2.890741     -1.108934
