39
Generated by autodE on: 2023-08-15. E = -1288.401871 Ha
Ir    0.61196  -0.73057   0.42330
C     0.11693  -2.84234   0.36017
C    -0.06306  -2.38008   1.71111
C     2.15753  -2.08328   1.13192
C     1.47432  -2.66993   0.01050
C     1.20142  -1.93473   2.17116
N    -1.06665   0.12026  -0.51504
C    -2.34033   0.32267   0.19197
C    -3.14253   1.51240  -0.31565
H    -3.97362   1.69185   0.36454
H    -3.57840   1.34059  -1.30078
H    -2.54486   2.42362  -0.34928
C    -3.15830  -0.96301   0.13791
H    -2.06060   0.51843   1.22829
H    -4.06770  -0.84891   0.72650
H    -3.45096  -1.19951  -0.88586
H    -2.61186  -1.81380   0.54129
C    -0.91036   0.47347  -1.73782
C     0.40926   0.30166  -2.26578
H    -1.71756   0.90359  -2.32186
C     1.44708   0.07789  -1.35989
C     2.66146  -0.16767  -2.07262
S     0.89799   0.24060  -3.88881
C     2.51026  -0.10473  -3.42442
H     1.63005   1.14153  -0.62467
H     3.61945  -0.32376  -1.59805
H     3.27121  -0.22256  -4.18089
H    -0.64627  -3.26795  -0.27497
H    -0.97147  -2.41990   2.29248
H     1.39348  -1.48727   3.13622
O     1.73466   2.30155   0.12608
O     0.56138   1.02304   1.51899
C     1.12896   2.11476   1.19900
C     1.07834   3.22766   2.20405
H     0.96861   4.18812   1.70571
H     2.02315   3.25375   2.74965
H     0.27540   3.08410   2.92156
H     3.21221  -1.86665   1.20215
H     1.91880  -2.93570  -0.93745
