! Opt PBEh-3c
%geom Constraints
{ B 0 20 2.2142857142857144 C }
{ B 24 30 1.3142857142857143 C }
    end
end
%output 
xyzfile=True 
end 
%scf 
maxiter 250 
end
%output
Print[P_Hirshfeld] = 1
end
% maxcore
4000
*xyz 1 1
Ir   0.60116632  -0.73725352   0.46857951 
C    0.10886717  -2.84093074   0.37307513 
C   -0.08601378  -2.37092083   1.72040569 
C    2.14420260  -2.09174734   1.17251539 
C    1.46897624  -2.66823113   0.03935652 
C    1.18079246  -1.93869482   2.20013880 
N   -1.05824656   0.11036054  -0.50343765 
C   -2.34197642   0.31426495   0.18803005 
C   -3.12986119   1.51263683  -0.32250706 
H   -3.96646197   1.69594452   0.34997880 
H   -3.55704540   1.34988867  -1.31290265 
H   -2.52424549   2.41884855  -0.34594015 
C   -3.16670086  -0.96577485   0.11471821 
H   -2.07702184   0.50366989   1.22926604 
H   -4.08308933  -0.85134808   0.69237504 
H   -3.44766275  -1.19365211  -0.91434259 
H   -2.63048203  -1.82311038   0.51841578 
C   -0.89880977   0.44190047  -1.73175652 
C    0.41934933   0.28988814  -2.27270101 
H   -1.71440255   0.84611530  -2.32365295 
C    1.49552313   0.14527129  -1.40651245 
C    2.68981764  -0.10055032  -2.14081726 
S    0.85616521   0.16737022  -3.91327553 
C    2.49093931  -0.10612673  -3.49014332 
H    1.65136805   1.16656892  -0.57069288 
H    3.66669984  -0.21016823  -1.69279943 
H    3.22967714  -0.23874703  -4.26599596 
H   -0.64936788  -3.25960741  -0.27251097 
H   -1.00021501  -2.41039572   2.29306622 
H    1.36393402  -1.49623808   3.16924797 
O    1.75315776   2.26927373   0.16332551 
O    0.54964417   1.01910121   1.55582925 
C    1.13481345   2.09972265   1.23430202 
C    1.09193111   3.22283340   2.22633155 
H    0.96520203   4.17609247   1.71786401 
H    2.04628909   3.26512006   2.75396479 
H    0.30240763   3.08148805   2.95879292 
H    3.19767857  -1.87110163   1.24867249 
H    1.92237053  -2.92257086  -0.90752313 
*
