39
Coordinates from ORCA-job reaction4-IEIP_ts_guess_scan_13-10_orca E -1288.401519145330
  Ir      0.618406     -0.730045      0.400266
  C       0.161881     -2.846510      0.317534
  C      -0.087384     -2.406122      1.666761
  C       2.150483     -2.053367      1.188366
  C       1.535026     -2.651643      0.038691
  C       1.138857     -1.936631      2.187528
  N      -1.076637      0.115578     -0.512997
  C      -2.345755      0.300636      0.206154
  C      -3.141057      1.514024     -0.254133
  H      -3.970125      1.672710      0.433618
  H      -3.578739      1.384364     -1.244872
  H      -2.536555      2.421342     -0.253316
  C      -3.171011     -0.977744      0.107927
  H      -2.061350      0.457457      1.247795
  H      -4.072795     -0.885726      0.711953
  H      -3.476715     -1.169378     -0.921421
  H      -2.622693     -1.847504      0.466158
  C      -0.931941      0.483033     -1.727411
  C       0.382645      0.303475     -2.248258
  H      -1.738705      0.923973     -2.303745
  C       1.399804      0.021663     -1.331096
  C       2.621913     -0.210948     -2.039085
  S       0.897451      0.309544     -3.863936
  C       2.494565     -0.083448     -3.388709
  H       1.618071      1.147400     -0.645825
  H       3.570009     -0.405455     -1.558580
  H       3.266945     -0.179898     -4.136662
  H      -0.559081     -3.290841     -0.352968
  H      -1.022918     -2.463745      2.201645
  H       1.274552     -1.491862      3.163263
  O       1.740647      2.296909      0.065120
  O       0.591315      1.039135      1.481820
  C       1.152381      2.123476      1.150294
  C       1.125478      3.248174      2.142372
  H       1.007505      4.203575      1.636217
  H       2.081369      3.277793      2.668180
  H       0.336871      3.113570      2.877148
  H       3.197385     -1.824159      1.313244
  H       2.029271     -2.903617     -0.888301
39
Coordinates from ORCA-job reaction4-IEIP_ts_guess_scan_13-10_orca E -1288.401757653563
  Ir      0.617809     -0.730537      0.398144
  C       0.160879     -2.849223      0.319405
  C      -0.085756     -2.410322      1.669532
  C       2.150047     -2.055763      1.187465
  C       1.533442     -2.654833      0.038860
  C       1.139731     -1.939835      2.187579
  N      -1.079665      0.113903     -0.511253
  C      -2.348263      0.299880      0.208776
  C      -3.142184      1.514094     -0.251677
  H      -3.971403      1.673491      0.435705
  H      -3.579462      1.384975     -1.242684
  H      -2.536880      2.420898     -0.250510
  C      -3.175029     -0.977489      0.110506
  H      -2.063676      0.456391      1.250442
  H      -4.076699     -0.884528      0.714557
  H      -3.481074     -1.168689     -0.918837
  H      -2.627765     -1.847939      0.468611
  C      -0.931823      0.482425     -1.730750
  C       0.386374      0.305219     -2.253891
  H      -1.738053      0.924416     -2.306961
  C       1.399838      0.017976     -1.334317
  C       2.623953     -0.213498     -2.040288
  S       0.906074      0.318683     -3.868249
  C       2.500863     -0.080236     -3.389837
  H       1.622234      1.154361     -0.649877
  H       3.570633     -0.410384     -1.557783
  H       3.275438     -0.175164     -4.135635
  H      -0.560862     -3.294312     -0.349786
  H      -1.020068     -2.469032      2.206320
  H       1.276654     -1.495476      3.163321
  O       1.743978      2.303415      0.061945
  O       0.590062      1.041133      1.481310
  C       1.153161      2.126505      1.149114
  C       1.123921      3.251033      2.140934
  H       1.006063      4.206402      1.634628
  H       2.078910      3.281209      2.668323
  H       0.334131      3.115664      2.874200
  H       3.197210     -1.827335      1.311706
  H       2.026626     -2.908288     -0.888308
39
Coordinates from ORCA-job reaction4-IEIP_ts_guess_scan_13-10_orca E -1288.401852713448
  Ir      0.616748     -0.730773      0.397506
  C       0.157002     -2.850271      0.324920
  C      -0.086691     -2.412446      1.675681
  C       2.147563     -2.058317      1.189468
  C       1.529370     -2.657930      0.042382
  C       1.138579     -1.942121      2.190674
  N      -1.080377      0.112903     -0.509722
  C      -2.348758      0.298310      0.209209
  C      -3.142482      1.511973     -0.252994
  H      -3.973219      1.671271      0.432621
  H      -3.577445      1.382171     -1.244920
  H      -2.537641      2.419066     -0.251032
  C      -3.174676     -0.979576      0.111167
  H      -2.064665      0.455440      1.250904
  H      -4.076816     -0.886908      0.714597
  H      -3.479881     -1.171566     -0.918246
  H      -2.626939     -1.849431      0.470175
  C      -0.931365      0.483772     -1.730744
  C       0.387349      0.308718     -2.257447
  H      -1.738349      0.926605     -2.305065
  C       1.397806      0.012018     -1.337855
  C       2.623558     -0.215225     -2.042834
  S       0.909707      0.331964     -3.870935
  C       2.503936     -0.068479     -3.391363
  H       1.626511      1.159866     -0.656235
  H       3.569059     -0.416443     -1.559747
  H       3.280592     -0.156894     -4.135778
  H      -0.565983     -3.295495     -0.342804
  H      -1.020069     -2.470620      2.214118
  H       1.277240     -1.497704      3.166145
  O       1.747564      2.307196      0.058479
  O       0.590304      1.042219      1.478822
  C       1.154402      2.127214      1.146432
  C       1.125889      3.251153      2.138127
  H       1.009009      4.206836      1.632172
  H       2.080667      3.280304      2.666014
  H       0.335558      3.115767      2.870722
  H       3.195177     -1.831670      1.313025
  H       2.021137     -2.913708     -0.884902
39
Coordinates from ORCA-job reaction4-IEIP_ts_guess_scan_13-10_orca E -1288.401915832820
  Ir      0.615788     -0.731718      0.397573
  C       0.152817     -2.851093      0.332123
  C      -0.088634     -2.414126      1.683359
  C       2.144655     -2.060952      1.193738
  C       1.525318     -2.661094      0.047978
  C       1.136527     -1.944126      2.195857
  N      -1.080539      0.111742     -0.509779
  C      -2.349709      0.295064      0.207783
  C      -3.145117      1.507888     -0.253966
  H      -3.977070      1.665157      0.430639
  H      -3.578476      1.378233     -1.246576
  H      -2.541814      2.416000     -0.250382
  C      -3.173961     -0.983850      0.108934
  H      -2.066561      0.451895      1.249835
  H      -4.076698     -0.892562      0.711698
  H      -3.478003     -1.176037     -0.920774
  H      -2.625228     -1.852915      0.468264
  C      -0.930530      0.486956     -1.729901
  C       0.387684      0.314913     -2.259273
  H      -1.738091      0.932030     -2.301491
  C       1.395278      0.005059     -1.341053
  C       2.622470     -0.216554     -2.045462
  S       0.915015      0.362044     -3.870656
  C       2.505150     -0.056492     -3.392778
  H       1.631866      1.164894     -0.664395
  H       3.566106     -0.427649     -1.562989
  H       3.282773     -0.141272     -4.136623
  H      -0.571218     -3.296358     -0.334440
  H      -1.021549     -2.470999      2.222707
  H       1.276683     -1.499248      3.170915
  O       1.752166      2.309639      0.054579
  O       0.592575      1.044217      1.475289
  C       1.157615      2.127757      1.143003
  C       1.131140      3.252228      2.133735
  H       1.015743      4.207965      1.627556
  H       2.085988      3.280065      2.661600
  H       0.340587      3.118085      2.866320
  H       3.192701     -1.836269      1.317037
  H       2.015924     -2.919330     -0.879242
39
Coordinates from ORCA-job reaction4-IEIP_ts_guess_scan_13-10_orca E -1288.401968416178
  Ir      0.614647     -0.735325      0.398450
  C       0.146612     -2.852980      0.341217
  C      -0.093167     -2.415922      1.692626
  C       2.140063     -2.065921      1.200584
  C       1.519759     -2.666624      0.056073
  C       1.132305     -1.947003      2.203328
  N      -1.079879      0.110199     -0.510499
  C      -2.350209      0.291021      0.205957
  C      -3.147692      1.503295     -0.253801
  H      -3.980271      1.657725      0.430621
  H      -3.580380      1.374686     -1.246833
  H      -2.546035      2.412514     -0.248179
  C      -3.172983     -0.988752      0.105410
  H      -2.068073      0.446780      1.248529
  H      -4.076384     -0.899017      0.707386
  H      -3.475690     -1.180440     -0.924793
  H      -2.623520     -1.857336      0.464625
  C      -0.929384      0.490503     -1.728264
  C       0.386982      0.318828     -2.259878
  H      -1.737542      0.937720     -2.297318
  C       1.392136     -0.005462     -1.343984
  C       2.621414     -0.217068     -2.047706
  S       0.917286      0.382877     -3.869740
  C       2.508474     -0.031119     -3.392254
  H       1.636481      1.167302     -0.676199
  H       3.563484     -0.436618     -1.566081
  H       3.289012     -0.100990     -4.134638
  H      -0.578468     -3.297871     -0.324493
  H      -1.026224     -2.469892      2.231978
  H       1.273878     -1.500988      3.177659
  O       1.755111      2.309754      0.046689
  O       0.597762      1.045352      1.470055
  C       1.162124      2.127129      1.136547
  C       1.139488      3.253550      2.125306
  H       1.024104      4.208762      1.618195
  H       2.095576      3.280984      2.650966
  H       0.350502      3.121325      2.859980
  H       3.188644     -1.843859      1.324004
  H       2.009430     -2.927927     -0.870785
39
Coordinates from ORCA-job reaction4-IEIP_ts_guess_scan_13-10_orca E -1288.401998621743
  Ir      0.613929     -0.737879      0.398778
  C       0.144765     -2.853764      0.343745
  C      -0.096561     -2.416181      1.694816
  C       2.137510     -2.066947      1.204970
  C       1.518654     -2.668325      0.060148
  C       1.128481     -1.947154      2.206833
  N      -1.079361      0.108918     -0.511354
  C      -2.349892      0.288410      0.205536
  C      -3.148285      1.500610     -0.252612
  H      -3.980404      1.653630      0.432645
  H      -3.581729      1.372848     -1.245464
  H      -2.547233      2.410239     -0.246358
  C      -3.171994     -0.991686      0.103780
  H      -2.067819      0.443400      1.248257
  H      -4.075619     -0.902686      0.705489
  H      -3.474226     -1.182768     -0.926685
  H      -2.622347     -1.860320      0.462590
  C      -0.929209      0.492604     -1.727018
  C       0.386513      0.321442     -2.258227
  H      -1.737081      0.942272     -2.294691
  C       1.391329     -0.009026     -1.344118
  C       2.621040     -0.216335     -2.048072
  S       0.919470      0.400894     -3.866554
  C       2.508498     -0.023053     -3.391809
  H       1.638063      1.167561     -0.682478
  H       3.562213     -0.442298     -1.567729
  H       3.289023     -0.090209     -4.134476
  H      -0.579615     -3.298765     -0.322672
  H      -1.030646     -2.468770      2.232507
  H       1.269142     -1.500221      3.180854
  O       1.755346      2.309082      0.042099
  O       0.600596      1.045453      1.466235
  C       1.163953      2.126766      1.132358
  C       1.143517      3.254035      2.120703
  H       1.027645      4.209040      1.613376
  H       2.100515      3.281293      2.644720
  H       0.355835      3.122629      2.856955
  H       3.186011     -1.845162      1.329627
  H       2.009342     -2.930386     -0.865964
39
Coordinates from ORCA-job reaction4-IEIP_ts_guess_scan_13-10_orca E -1288.402015473420
  Ir      0.613607     -0.740494      0.398996
  C       0.144873     -2.855095      0.344033
  C      -0.099267     -2.416555      1.694507
  C       2.135883     -2.067216      1.208846
  C       1.519556     -2.669635      0.063192
  C       1.124791     -1.946888      2.208995
  N      -1.079500      0.107805     -0.511615
  C      -2.349948      0.286529      0.206143
  C      -3.148166      1.499619     -0.249816
  H      -3.979593      1.651703      0.436507
  H      -3.582617      1.373607     -1.242462
  H      -2.546918      2.409113     -0.242576
  C      -3.172374     -0.993157      0.102181
  H      -2.067642      0.439954      1.249014
  H      -4.076158     -0.904620      0.703727
  H      -3.474383     -1.182555     -0.928656
  H      -2.623338     -1.862635      0.459792
  C      -0.929512      0.493884     -1.726033
  C       0.386312      0.322178     -2.256256
  H      -1.736617      0.945389     -2.293324
  C       1.391517     -0.010411     -1.343158
  C       2.621217     -0.215319     -2.047668
  S       0.920038      0.407965     -3.864022
  C       2.508639     -0.018150     -3.390992
  H       1.638205      1.167289     -0.687450
  H       3.562195     -0.443880     -1.568200
  H       3.289075     -0.082965     -4.133962
  H      -0.578005     -3.300771     -0.323572
  H      -1.034663     -2.468511      2.229983
  H       1.263486     -1.499155      3.182907
  O       1.754152      2.308904      0.037193
  O       0.603408      1.045107      1.463112
  C       1.165358      2.126751      1.128316
  C       1.146238      3.254285      2.116711
  H       1.028699      4.209094      1.609415
  H       2.104314      3.282097      2.638704
  H       0.360243      3.122690      2.854741
  H       3.184060     -1.844866      1.335316
  H       2.012205     -2.931891     -0.861830
39
Coordinates from ORCA-job reaction4-IEIP_ts_guess_scan_13-10_orca E -1288.402025482497
  Ir      0.613448     -0.742392      0.398947
  C       0.145794     -2.856526      0.343561
  C      -0.101583     -2.417251      1.693415
  C       2.134480     -2.066991      1.212622
  C       1.521217     -2.670659      0.066012
  C       1.120939     -1.946671      2.210637
  N      -1.079822      0.107033     -0.511269
  C      -2.350023      0.285233      0.207138
  C      -3.147751      1.499348     -0.246911
  H      -3.978815      1.650746      0.440028
  H      -3.582661      1.375096     -1.239578
  H      -2.546134      2.408586     -0.238454
  C      -3.172835     -0.993996      0.101016
  H      -2.067382      0.437064      1.250131
  H      -4.076700     -0.906013      0.702540
  H      -3.474772     -1.181617     -0.930158
  H      -2.624297     -1.864358      0.457247
  C      -0.929917      0.494722     -1.725206
  C       0.386284      0.322736     -2.255034
  H      -1.736399      0.947567     -2.292274
  C       1.391756     -0.010805     -1.342399
  C       2.621261     -0.214689     -2.047672
  S       0.919891      0.411188     -3.862649
  C       2.508571     -0.015170     -3.390700
  H       1.638152      1.168283     -0.692188
  H       3.562301     -0.444268     -1.568807
  H       3.288905     -0.078462     -4.133906
  H      -0.575194     -3.303310     -0.325337
  H      -1.038284     -2.469225      2.226616
  H       1.257166     -1.498426      3.184646
  O       1.752839      2.310000      0.032495
  O       0.605782      1.044894      1.460370
  C       1.166372      2.127144      1.124629
  C       1.148237      3.254162      2.113674
  H       1.028921      4.209076      1.606978
  H       2.107321      3.282399      2.633786
  H       0.363811      3.121672      2.853200
  H       3.182234     -1.843870      1.341297
  H       2.016255     -2.933059     -0.857699
39
Coordinates from ORCA-job reaction4-IEIP_ts_guess_scan_13-10_orca E -1288.402033132514
  Ir      0.613585     -0.743654      0.398784
  C       0.147783     -2.858034      0.342624
  C      -0.103549     -2.418395      1.691825
  C       2.133351     -2.066172      1.216943
  C       1.523948     -2.671293      0.069141
  C       1.116787     -1.946533      2.212300
  N      -1.080266      0.106589     -0.510568
  C      -2.350278      0.284224      0.208183
  C      -3.147289      1.499584     -0.243772
  H      -3.978351      1.650194      0.443359
  H      -3.582088      1.377447     -1.236742
  H      -2.545186      2.408479     -0.233499
  C      -3.173600     -0.994451      0.099507
  H      -2.067406      0.434082      1.251391
  H      -4.077471     -0.907310      0.701161
  H      -3.475592     -1.179834     -0.932051
  H      -2.625472     -1.865831      0.453870
  C      -0.930468      0.495355     -1.724374
  C       0.386077      0.323323     -2.254414
  H      -1.736568      0.949110     -2.291216
  C       1.391796     -0.010598     -1.341987
  C       2.620930     -0.214516     -2.048283
  S       0.918859      0.412314     -3.862132
  C       2.507856     -0.014009     -3.391092
  H       1.637948      1.170584     -0.697029
  H       3.562219     -0.444240     -1.569943
  H       3.287936     -0.076722     -4.134609
  H      -0.570761     -3.306408     -0.327820
  H      -1.041686     -2.471019      2.222441
  H       1.249841     -1.498014      3.186614
  O       1.751479      2.312166      0.028050
  O       0.608175      1.044983      1.457934
  C       1.167383      2.127904      1.121339
  C       1.150207      3.253925      2.111455
  H       1.029141      4.209212      1.605851
  H       2.110284      3.282390      2.629725
  H       0.367304      3.120104      2.852334
  H       3.180547     -1.842049      1.348411
  H       2.021965     -2.933699     -0.852972
39
Coordinates from ORCA-job reaction4-IEIP_ts_guess_scan_13-10_orca E -1288.402037191111
  Ir      0.613911     -0.743897      0.398554
  C       0.150378     -2.858965      0.341193
  C      -0.104975     -2.419595      1.689859
  C       2.132596     -2.064711      1.220969
  C       1.527162     -2.671003      0.071841
  C       1.113002     -1.946404      2.213668
  N      -1.080561      0.106580     -0.509861
  C      -2.350495      0.283654      0.208973
  C      -3.146876      1.500122     -0.241084
  H      -3.978176      1.649938      0.445929
  H      -3.581233      1.379942     -1.234480
  H      -2.544341      2.408707     -0.228941
  C      -3.174214     -0.994581      0.098031
  H      -2.067542      0.431631      1.252428
  H      -4.077904     -0.908485      0.700110
  H      -3.476538     -1.177790     -0.933819
  H      -2.626128     -1.866829      0.450352
  C      -0.931050      0.495563     -1.723765
  C       0.385563      0.323682     -2.254492
  H      -1.737183      0.949533     -2.290390
  C       1.391535     -0.009984     -1.342117
  C       2.620210     -0.214917     -2.049354
  S       0.917131      0.411347     -3.862499
  C       2.506539     -0.014994     -3.392089
  H       1.637491      1.173223     -0.700623
  H       3.561806     -0.444187     -1.571369
  H       3.286220     -0.078255     -4.135971
  H      -0.565624     -3.308917     -0.330889
  H      -1.044490     -2.473295      2.217931
  H       1.242742     -1.497912      3.188439
  O       1.750412      2.314403      0.025183
  O       0.609927      1.045357      1.456426
  C       1.168127      2.128722      1.119374
  C       1.151927      3.253737      2.110578
  H       1.029884      4.209539      1.606162
  H       2.112710      3.281985      2.627565
  H       0.370057      3.118838      2.852338
  H       3.179198     -1.839543      1.355335
  H       2.028174     -2.933052     -0.848754
39
Coordinates from ORCA-job reaction4-IEIP_ts_guess_scan_13-10_orca E -1288.402039366920
  Ir      0.614361     -0.743504      0.398373
  C       0.153702     -2.859410      0.339235
  C      -0.106030     -2.420948      1.687454
  C       2.132163     -2.062593      1.225076
  C       1.531067     -2.669772      0.074333
  C       1.109360     -1.946304      2.214994
  N      -1.080782      0.106691     -0.509263
  C      -2.350703      0.283234      0.209596
  C      -3.146309      1.500932     -0.238441
  H      -3.977900      1.649954      0.448381
  H      -3.580168      1.382868     -1.232306
  H      -2.543214      2.409112     -0.224307
  C      -3.174969     -0.994473      0.096340
  H      -2.067782      0.429165      1.253354
  H      -4.078256     -0.909537      0.699178
  H      -3.477978     -1.175242     -0.935746
  H      -2.626798     -1.867666      0.446209
  C      -0.931798      0.495279     -1.723356
  C       0.384621      0.323587     -2.254994
  H      -1.738291      0.948936     -2.289752
  C       1.390943     -0.009363     -1.342668
  C       2.619125     -0.215726     -2.050689
  S       0.914848      0.408992     -3.863388
  C       2.504695     -0.017391     -3.393465
  H       1.636582      1.175539     -0.703173
  H       3.561038     -0.444271     -1.572959
  H       3.283876     -0.081815     -4.137769
  H      -0.559516     -3.310887     -0.334763
  H      -1.047025     -2.476053      2.212747
  H       1.235451     -1.498058      3.190356
  O       1.749464      2.316194      0.023463
  O       0.611195      1.045892      1.455715
  C       1.168692      2.129452      1.118398
  C       1.153650      3.253751      2.110423
  H       1.031377      4.210049      1.607003
  H       2.114913      3.281401      2.626563
  H       0.372420      3.118322      2.852761
  H       3.178089     -1.836214      1.362610
  H       2.035258     -2.930932     -0.844782
39
Coordinates from ORCA-job reaction4-IEIP_ts_guess_scan_13-10_orca E -1288.402040681974
  Ir      0.614832     -0.742798      0.398275
  C       0.157896     -2.859493      0.336545
  C      -0.107152     -2.422600      1.684337
  C       2.131773     -2.059734      1.229908
  C       1.535950     -2.667601      0.077022
  C       1.105162     -1.946266      2.216558
  N      -1.080971      0.106655     -0.508755
  C      -2.350850      0.282681      0.210283
  C      -3.145378      1.501994     -0.235200
  H      -3.977136      1.650176      0.451590
  H      -3.578927      1.386579     -1.229511
  H      -2.541440      2.409571     -0.218822
  C      -3.175963     -0.994267      0.094295
  H      -2.067965      0.426094      1.254396
  H      -4.078562     -0.910671      0.698338
  H      -3.480135     -1.171955     -0.937992
  H      -2.627682     -1.868692      0.440956
  C      -0.932828      0.494409     -1.723113
  C       0.383199      0.322871     -2.255756
  H      -1.739936      0.947370     -2.289238
  C       1.389997     -0.009086     -1.343577
  C       2.617704     -0.216805     -2.052210
  S       0.912144      0.405864     -3.864576
  C       2.502428     -0.020446     -3.395095
  H       1.635064      1.177174     -0.705181
  H       3.559923     -0.444574     -1.574698
  H       3.281053     -0.086147     -4.139867
  H      -0.551963     -3.312504     -0.339949
  H      -1.049988     -2.479403      2.206147
  H       1.226826     -1.498450      3.192677
  O       1.748479      2.317333      0.022150
  O       0.612194      1.046539      1.455493
  C       1.169189      2.130072      1.117825
  C       1.155687      3.254061      2.110267
  H       1.033874      4.210745      1.607492
  H       2.117284      3.280724      2.625852
  H       0.374825      3.118816      2.853039
  H       3.176853     -1.831837      1.371298
  H       2.043908     -2.927205     -0.840462
39
Coordinates from ORCA-job reaction4-IEIP_ts_guess_scan_13-10_orca E -1288.402042043590
  Ir      0.615300     -0.742046      0.398333
  C       0.163297     -2.859397      0.332970
  C      -0.108577     -2.424793      1.680278
  C       2.131291     -2.056032      1.236151
  C       1.542263     -2.664496      0.080372
  C       1.099850     -1.946367      2.218657
  N      -1.081228      0.106177     -0.508235
  C      -2.350968      0.281727      0.211258
  C      -3.143779      1.503413     -0.230701
  H      -3.975485      1.650710      0.456339
  H      -3.577318      1.391666     -1.225439
  H      -2.538462      2.410006     -0.211550
  C      -3.177530     -0.993974      0.091617
  H      -2.068069      0.421747      1.255811
  H      -4.079113     -0.911931      0.697377
  H      -3.483440     -1.167437     -0.940883
  H      -2.629345     -1.870210      0.433902
  C      -0.934315      0.492737     -1.722979
  C       0.381180      0.321273     -2.256677
  H      -1.742268      0.944664     -2.288770
  C       1.388636     -0.009525     -1.344834
  C       2.615936     -0.218023     -2.053929
  S       0.909010      0.402382     -3.865931
  C       2.499734     -0.023511     -3.396946
  H       1.632754      1.177799     -0.707026
  H       3.558472     -0.445021     -1.576672
  H       3.277791     -0.090135     -4.142230
  H      -0.542260     -3.314070     -0.346885
  H      -1.053847     -2.483628      2.197457
  H       1.215847     -1.499181      3.195746
  O       1.747352      2.317681      0.020555
  O       0.613149      1.047278      1.455539
  C       1.169750      2.130585      1.117130
  C       1.158272      3.254764      2.109448
  H       1.037611      4.211641      1.606806
  H       2.120084      3.280037      2.624716
  H       0.377549      3.120571      2.852580
  H       3.175253     -1.826155      1.382512
  H       2.054991     -2.921733     -0.835126
39
Coordinates from ORCA-job reaction4-IEIP_ts_guess_scan_13-10_orca E -1288.402043688859
  Ir      0.615632     -0.741634      0.398554
  C       0.168731     -2.859316      0.329313
  C      -0.110171     -2.427110      1.676121
  C       2.130681     -2.052415      1.242742
  C       1.548683     -2.661336      0.083913
  C       1.094288     -1.946625      2.220945
  N      -1.081537      0.105150     -0.507701
  C      -2.351013      0.280415      0.212498
  C      -3.141649      1.504932     -0.225486
  H      -3.973015      1.651532      0.462127
  H      -3.575558      1.397350     -1.220522
  H      -2.534560      2.410262     -0.203500
  C      -3.179486     -0.993666      0.088814
  H      -2.067986      0.416696      1.257479
  H      -4.079965     -0.913034      0.696405
  H      -3.487324     -1.162433     -0.943893
  H      -2.631750     -1.872055      0.426356
  C      -0.935977      0.490455     -1.722927
  C       0.379036      0.318968     -2.257458
  H      -1.744778      0.941272     -2.288417
  C       1.387214     -0.010881     -1.346131
  C       2.614325     -0.218921     -2.055467
  S       0.906260      0.399783     -3.867029
  C       2.497341     -0.025202     -3.398557
  H       1.630188      1.176981     -0.708496
  H       3.557151     -0.445341     -1.578514
  H       3.275001     -0.091767     -4.144264
  H      -0.532398     -3.315465     -0.354111
  H      -1.058020     -2.487800      2.188367
  H       1.204486     -1.500146      3.199015
  O       1.746386      2.317080      0.018489
  O       0.613981      1.047927      1.455580
  C       1.170334      2.130892      1.115982
  C       1.160808      3.255747      2.107588
  H       1.041776      4.212528      1.604425
  H       2.122607      3.279546      2.622956
  H       0.379889      3.123303      2.850851
  H       3.173463     -1.820519      1.394261
  H       2.066297     -2.915959     -0.829567
39
Coordinates from ORCA-job reaction4-IEIP_ts_guess_scan_13-10_orca E -1288.402045480216
  Ir      0.615761     -0.741773      0.398824
  C       0.172099     -2.859467      0.327120
  C      -0.111361     -2.428645      1.673550
  C       2.130156     -2.050388      1.247279
  C       1.552746     -2.659603      0.086470
  C       1.090535     -1.946895      2.222590
  N      -1.081806      0.103994     -0.507212
  C      -2.351016      0.279218      0.213593
  C      -3.139801      1.506000     -0.221413
  H      -3.970749      1.652310      0.466787
  H      -3.574177      1.401600     -1.216584
  H      -2.531209      2.410259     -0.197433
  C      -3.181142     -0.993465      0.086841
  H      -2.067818      0.412732      1.258854
  H      -4.080945     -0.913604      0.695548
  H      -3.490214     -1.158782     -0.946053
  H      -2.634099     -1.873569      0.421097
  C      -0.937146      0.488509     -1.722854
  C       0.377651      0.316959     -2.257752
  H      -1.746447      0.938585     -2.288211
  C       1.386364     -0.012578     -1.346945
  C       2.613531     -0.219094     -2.056356
  S       0.904853      0.399224     -3.867426
  C       2.496129     -0.024699     -3.399399
  H       1.628586      1.175270     -0.709258
  H       3.556567     -0.445286     -1.579718
  H       3.273696     -0.090219     -4.145300
  H      -0.526148     -3.316474     -0.358664
  H      -1.060945     -2.490287      2.182479
  H       1.197021     -1.500920      3.201290
  O       1.746081      2.316026      0.016488
  O       0.614546      1.048275      1.455351
  C       1.170828      2.130967      1.114561
  C       1.162256      3.256588      2.105284
  H       1.044685      4.213091      1.601275
  H       2.123776      3.279403      2.621218
  H       0.380818      3.125743      2.848294
  H       3.172165     -1.817243      1.402187
  H       2.073544     -2.912570     -0.825660
39
Coordinates from ORCA-job reaction4-IEIP_ts_guess_scan_13-10_orca E -1288.402046746852
  Ir      0.615802     -0.742144      0.398972
  C       0.173076     -2.859794      0.326599
  C      -0.111944     -2.429132      1.672809
  C       2.129865     -2.050050      1.249064
  C       1.554008     -2.659466      0.087634
  C       1.089097     -1.947012      2.223268
  N      -1.081917      0.103300     -0.506845
  C      -2.350977      0.278564      0.214229
  C      -3.138813      1.506450     -0.219421
  H      -3.969522      1.652745      0.469084
  H      -3.573427      1.403543     -1.214641
  H      -2.529454      2.410165     -0.194542
  C      -3.181937     -0.993401      0.086023
  H      -2.067657      0.410822      1.259603
  H      -4.081609     -0.913734      0.694962
  H      -3.491304     -1.157237     -0.947016
  H      -2.635432     -1.874323      0.419049
  C      -0.937553      0.487572     -1.722708
  C       0.377238      0.316011     -2.257665
  H      -1.746976      0.937385     -2.288084
  C       1.386202     -0.013690     -1.347196
  C       2.613472     -0.218808     -2.056698
  S       0.904555      0.399965     -3.867323
  C       2.495913     -0.023264     -3.399628
  H       1.628339      1.173961     -0.709462
  H       3.556639     -0.444997     -1.580324
  H       3.273549     -0.087714     -4.145553
  H      -0.524186     -3.317100     -0.359980
  H      -1.062161     -2.490886      2.180555
  H       1.194380     -1.501241      3.202187
  O       1.746376      2.315341      0.015214
  O       0.614847      1.048363      1.454886
  C       1.171139      2.130960      1.113417
  C       1.162450      3.256998      2.103622
  H       1.045791      4.213306      1.599033
  H       2.123568      3.279417      2.620323
  H       0.380384      3.126948      2.846105
  H       3.171622     -1.816566      1.405147
  H       2.075926     -2.912068     -0.823958
