39
Coordinates from ORCA-job reaction4-IEIP_ts_guess_scan_3-11_orca E -1288.395315649331
  Ir      0.580321     -0.727278      0.487428
  C       0.035972     -2.809071      0.358346
  C       0.075063     -2.363044      1.729229
  C       2.188846     -2.133306      0.840268
  C       1.317885     -2.640443     -0.196483
  C       1.432775     -1.999735      2.018960
  N      -1.046265      0.149075     -0.506727
  C      -2.326999      0.451510      0.154530
  C      -3.118769      1.555203     -0.529350
  H      -3.951044      1.841335      0.112333
  H      -3.554088      1.241247     -1.479237
  H      -2.515283      2.447777     -0.696323
  C      -3.146762     -0.825824      0.292556
  H      -2.050364      0.796340      1.152220
  H      -4.067560     -0.613684      0.833936
  H      -3.419728     -1.228630     -0.683722
  H      -2.614397     -1.595951      0.848921
  C      -0.850251      0.360906     -1.748989
  C       0.495050      0.166378     -2.226813
  H      -1.642567      0.704489     -2.408289
  C       1.597396      0.452828     -1.431130
  C       2.797592      0.079257     -2.098902
  S       0.917814     -0.485160     -3.748706
  C       2.582935     -0.429383     -3.343153
  H       1.538952      1.360439     -0.602268
  H       3.786236      0.235722     -1.692256
  H       3.319266     -0.756166     -4.062001
  H      -0.836340     -3.173754     -0.164765
  H      -0.735891     -2.401743      2.441618
  H       1.790266     -1.608858      2.960839
  O       1.396678      2.402581      0.232576
  O       0.540237      0.934718      1.665187
  C       0.955812      2.105973      1.343993
  C       0.912262      3.126331      2.444465
  H       0.860163      4.132083      2.036306
  H       1.830720      3.053585      3.030384
  H       0.079387      2.952772      3.122036
  H       3.237871     -1.902826      0.728705
  H       1.606181     -2.856501     -1.214982
39
Coordinates from ORCA-job reaction4-IEIP_ts_guess_scan_3-11_orca E -1288.395474244667
  Ir      0.583634     -0.729456      0.488182
  C       0.033680     -2.811516      0.365451
  C       0.072004     -2.363343      1.735362
  C       2.187308     -2.139611      0.848487
  C       1.316624     -2.647498     -0.187985
  C       1.429682     -2.001271      2.025553
  N      -1.046287      0.148772     -0.508930
  C      -2.326249      0.449868      0.153051
  C      -3.119224      1.551644     -0.532400
  H      -3.952531      1.836930      0.108309
  H      -3.553024      1.236090     -1.482491
  H      -2.517143      2.445124     -0.699656
  C      -3.143627     -0.828771      0.292290
  H      -2.049322      0.795787      1.150280
  H      -4.064283     -0.617915      0.834381
  H      -3.416763     -1.232466     -0.683571
  H      -2.609341     -1.597690      0.848531
  C      -0.852234      0.364789     -1.754064
  C       0.493823      0.176738     -2.237908
  H      -1.646163      0.712192     -2.409468
  C       1.594070      0.448965     -1.434914
  C       2.794958      0.076702     -2.102922
  S       0.917831     -0.462680     -3.764306
  C       2.582178     -0.418401     -3.352905
  H       1.537816      1.363357     -0.602377
  H       3.783016      0.225798     -1.691985
  H       3.319415     -0.740503     -4.072852
  H      -0.838670     -3.175712     -0.157953
  H      -0.739657     -2.399482      2.446984
  H       1.786743     -1.608915      2.966965
  O       1.400328      2.407076      0.231297
  O       0.541372      0.936227      1.666646
  C       0.959434      2.107742      1.345178
  C       0.915883      3.127954      2.445582
  H       0.863737      4.133829      2.037615
  H       1.834331      3.055010      3.031437
  H       0.082990      2.954159      3.122998
  H       3.237179     -1.912686      0.738173
  H       1.605849     -2.867644     -1.205325
39
Coordinates from ORCA-job reaction4-IEIP_ts_guess_scan_3-11_orca E -1288.395546465342
  Ir      0.582394     -0.730467      0.490107
  C       0.027975     -2.812171      0.374989
  C       0.062841     -2.360983      1.743391
  C       2.181032     -2.142587      0.861502
  C       1.312826     -2.652592     -0.175495
  C       1.419446     -1.998861      2.035631
  N      -1.043157      0.145298     -0.509370
  C      -2.323262      0.445370      0.152409
  C      -3.118198      1.545916     -0.532830
  H      -3.952028      1.829819      0.107847
  H      -3.551502      1.229695     -1.482898
  H      -2.517695      2.440466     -0.700035
  C      -3.139474     -0.833914      0.292947
  H      -2.046173      0.791934      1.149410
  H      -4.059957     -0.623666      0.835641
  H      -3.412896     -1.238316     -0.682518
  H      -2.604003     -1.601933      0.849138
  C      -0.849732      0.366041     -1.755331
  C       0.495606      0.182140     -2.246155
  H      -1.644955      0.717311     -2.406723
  C       1.595915      0.437320     -1.437847
  C       2.796395      0.075581     -2.112821
  S       0.917894     -0.429973     -3.783442
  C       2.582664     -0.396399     -3.371531
  H       1.542486      1.358917     -0.601881
  H       3.784777      0.216545     -1.699731
  H       3.319254     -0.705750     -4.097664
  H      -0.843389     -3.176500     -0.149911
  H      -0.750789     -2.394003      2.452806
  H       1.774185     -1.603645      2.976725
  O       1.410733      2.404733      0.230089
  O       0.536460      0.936936      1.664572
  C       0.962514      2.105511      1.343620
  C       0.920202      3.127087      2.442131
  H       0.874826      4.132806      2.032957
  H       1.835980      3.049904      3.031631
  H       0.083692      2.957984      3.116172
  H       3.231860     -1.918793      0.754198
  H       1.604624     -2.877569     -1.190988
39
Coordinates from ORCA-job reaction4-IEIP_ts_guess_scan_3-11_orca E -1288.395574589656
  Ir      0.583099     -0.733204      0.493415
  C       0.025969     -2.814655      0.385716
  C       0.057863     -2.359580      1.752527
  C       2.178723     -2.146541      0.874690
  C       1.312482     -2.659006     -0.162578
  C       1.413842     -1.997458      2.046226
  N      -1.041830      0.141975     -0.511188
  C      -2.323338      0.439596      0.149916
  C      -3.118668      1.541889     -0.532068
  H      -3.953209      1.822846      0.108967
  H      -3.551155      1.228667     -1.483491
  H      -2.518884      2.437595     -0.695674
  C      -3.140456     -0.839705      0.286063
  H      -2.047710      0.783436      1.148280
  H      -4.061714     -0.630309      0.827780
  H      -3.412515     -1.241533     -0.690846
  H      -2.606467     -1.609307      0.841215
  C      -0.849224      0.368587     -1.756186
  C       0.494150      0.188967     -2.251803
  H      -1.646088      0.721815     -2.404363
  C       1.594698      0.428514     -1.439210
  C       2.794644      0.074228     -2.118509
  S       0.915551     -0.395551     -3.799330
  C       2.580198     -0.374388     -3.385740
  H       1.544920      1.353818     -0.601858
  H       3.783079      0.203797     -1.701885
  H       3.316222     -0.674008     -4.116493
  H      -0.844512     -3.179630     -0.140203
  H      -0.757468     -2.389282      2.460100
  H       1.766741     -1.599152      2.986729
  O       1.419287      2.401626      0.228553
  O       0.536287      0.939044      1.663556
  C       0.967517      2.104392      1.341846
  C       0.928606      3.128750      2.437577
  H       0.887771      4.133762      2.026272
  H       1.843526      3.048990      3.028094
  H       0.090722      2.964351      3.111097
  H       3.230349     -1.925378      0.769899
  H       1.606362     -2.888770     -1.176351
39
Coordinates from ORCA-job reaction4-IEIP_ts_guess_scan_3-11_orca E -1288.395588227202
  Ir      0.581921     -0.735343      0.497158
  C       0.023858     -2.816205      0.393539
  C       0.051637     -2.358251      1.759264
  C       2.175660     -2.148685      0.887286
  C       1.312344     -2.662992     -0.151454
  C       1.406783     -1.995905      2.055896
  N      -1.039993      0.139076     -0.511755
  C      -2.322695      0.434216      0.149009
  C      -3.117965      1.539293     -0.528661
  H      -3.952570      1.817362      0.113521
  H      -3.550526      1.230051     -1.481349
  H      -2.518417      2.435854     -0.688456
  C      -3.140674     -0.845183      0.279381
  H      -2.048457      0.774353      1.149043
  H      -4.062833     -0.637031      0.820017
  H      -3.411117     -1.243615     -0.699372
  H      -2.608341     -1.617048      0.833001
  C      -0.847959      0.369709     -1.755674
  C       0.493219      0.192625     -2.254688
  H      -1.646468      0.723046     -2.401880
  C       1.594946      0.418305     -1.439550
  C       2.794122      0.074206     -2.124613
  S       0.913069     -0.369972     -3.810300
  C       2.578012     -0.353880     -3.398881
  H       1.548602      1.345246     -0.601674
  H       3.782984      0.195759     -1.706702
  H       3.313054     -0.642520     -4.135022
  H      -0.845131     -3.181756     -0.134458
  H      -0.766000     -2.385380      2.464261
  H       1.757032     -1.595168      2.996377
  O       1.428103      2.395179      0.226811
  O       0.535142      0.940477      1.662235
  C       0.972023      2.102214      1.339397
  C       0.935314      3.130760      2.431546
  H       0.899206      4.134565      2.016968
  H       1.848851      3.049257      3.023974
  H       0.095589      2.971856      3.104159
  H       3.227957     -1.929168      0.785956
  H       1.609087     -2.896114     -1.163573
39
Coordinates from ORCA-job reaction4-IEIP_ts_guess_scan_3-11_orca E -1288.395588021835
  Ir      0.581073     -0.735867      0.498993
  C       0.024554     -2.816690      0.395639
  C       0.048690     -2.357635      1.761076
  C       2.174982     -2.147959      0.894205
  C       1.314426     -2.663341     -0.146345
  C       1.402999     -1.994410      2.060683
  N      -1.039347      0.137669     -0.511850
  C      -2.322523      0.430628      0.149440
  C      -3.117281      1.538657     -0.524129
  H      -3.951502      1.814717      0.119421
  H      -3.550407      1.233194     -1.477772
  H      -2.517362      2.435501     -0.680835
  C      -3.141179     -0.848902      0.274243
  H      -2.049051      0.767029      1.150941
  H      -4.064033     -0.642164      0.814251
  H      -3.410426     -1.243876     -0.706243
  H      -2.610144     -1.623054      0.825925
  C      -0.848151      0.370466     -1.755328
  C       0.491773      0.195864     -2.256130
  H      -1.647968      0.723258     -2.400291
  C       1.594393      0.413581     -1.440056
  C       2.792902      0.071601     -2.126491
  S       0.911533     -0.349796     -3.817737
  C       2.575585     -0.347423     -3.403845
  H       1.551011      1.340093     -0.601554
  H       3.781926      0.185402     -1.706864
  H       3.309865     -0.634250     -4.141459
  H      -0.842812     -3.183069     -0.134448
  H      -0.770807     -2.384183      2.463941
  H       1.750800     -1.592559      3.001607
  O       1.433687      2.391398      0.225645
  O       0.534439      0.942013      1.661200
  C       0.974523      2.101837      1.337544
  C       0.938458      3.133057      2.427523
  H       0.904634      4.135998      2.010729
  H       1.851160      3.051130      3.021177
  H       0.097711      2.977181      3.099589
  H       3.227544     -1.928410      0.795800
  H       1.613698     -2.897494     -1.157455
39
Coordinates from ORCA-job reaction4-IEIP_ts_guess_scan_3-11_orca E -1288.395595850201
  Ir      0.581074     -0.736237      0.499861
  C       0.025478     -2.817181      0.394976
  C       0.047701     -2.358246      1.760596
  C       2.175138     -2.147934      0.896755
  C       1.316039     -2.663228     -0.145110
  C       1.401630     -1.994888      2.062215
  N      -1.039154      0.137569     -0.511294
  C      -2.322221      0.430239      0.150349
  C      -3.115913      1.539965     -0.521753
  H      -3.949794      1.815990      0.122271
  H      -3.549392      1.236181     -1.475761
  H      -2.515076      2.436369     -0.677360
  C      -3.141668     -0.849018      0.272660
  H      -2.048850      0.764885      1.152440
  H      -4.064755     -0.642637      0.812441
  H      -3.410564     -1.242325     -0.708592
  H      -2.611431     -1.624396      0.823365
  C      -0.848506      0.369646     -1.755082
  C       0.491124      0.195053     -2.256003
  H      -1.648815      0.721316     -2.400045
  C       1.594114      0.411816     -1.440161
  C       2.792430      0.071134     -2.127265
  S       0.910487     -0.352393     -3.817314
  C       2.574778     -0.345156     -3.405595
  H       1.551393      1.337704     -0.601467
  H       3.781631      0.185738     -1.708302
  H       3.308992     -0.629198     -4.144361
  H      -0.840973     -3.183802     -0.136432
  H      -0.772786     -2.385036      2.462311
  H       1.748106     -1.593180      3.003689
  O       1.434500      2.389755      0.224844
  O       0.534817      0.942062      1.661470
  C       0.974883      2.101770      1.336800
  C       0.938188      3.134011      2.425861
  H       0.903669      4.136493      2.008012
  H       1.850981      3.053244      3.019522
  H       0.097600      2.978294      3.098145
  H       3.227791     -1.928118      0.799931
  H       1.616724     -2.897072     -1.155877
39
Coordinates from ORCA-job reaction4-IEIP_ts_guess_scan_3-11_orca E -1288.395601120135
  Ir      0.581369     -0.736205      0.500409
  C       0.026795     -2.817464      0.393452
  C       0.046352     -2.358825      1.759314
  C       2.175354     -2.147532      0.899722
  C       1.318301     -2.662691     -0.143925
  C       1.399657     -1.995298      2.063763
  N      -1.038813      0.137654     -0.510364
  C      -2.321731      0.429686      0.151764
  C      -3.114250      1.541597     -0.518225
  H      -3.947812      1.817380      0.126326
  H      -3.548001      1.240037     -1.472800
  H      -2.512307      2.437521     -0.672228
  C      -3.141906     -0.849411      0.270683
  H      -2.048430      0.761822      1.154674
  H      -4.065143     -0.643956      0.810587
  H      -3.410600     -1.240236     -0.711615
  H      -2.612216     -1.626443      0.819604
  C      -0.848970      0.368925     -1.754621
  C       0.490458      0.194511     -2.256015
  H      -1.649923      0.719558     -2.399334
  C       1.593932      0.410519     -1.440647
  C       2.791868      0.070710     -2.128638
  S       0.909149     -0.353645     -3.817528
  C       2.573435     -0.345380     -3.407014
  H       1.552140      1.335727     -0.601195
  H       3.781370      0.185964     -1.710584
  H       3.307353     -0.628576     -4.146408
  H      -0.838395     -3.184431     -0.139763
  H      -0.775470     -2.386124      2.459454
  H       1.744223     -1.593892      3.006065
  O       1.435881      2.388738      0.223982
  O       0.535451      0.942389      1.661647
  C       0.975502      2.102137      1.335965
  C       0.937264      3.135255      2.424051
  H       0.901488      4.137272      2.005152
  H       1.850102      3.056227      3.017853
  H       0.096782      2.979092      3.096333
  H       3.228136     -1.927395      0.805072
  H       1.620974     -2.896026     -1.154228
39
Coordinates from ORCA-job reaction4-IEIP_ts_guess_scan_3-11_orca E -1288.395609037924
  Ir      0.582342     -0.736115      0.501875
  C       0.030509     -2.818280      0.390727
  C       0.042183     -2.359741      1.756883
  C       2.175807     -2.146172      0.909479
  C       1.324811     -2.661712     -0.138950
  C       1.393474     -1.995373      2.069199
  N      -1.037901      0.137123     -0.508252
  C      -2.320681      0.426997      0.155063
  C      -3.110214      1.545089     -0.508407
  H      -3.943108      1.819506      0.137596
  H      -3.544478      1.250149     -1.464777
  H      -2.505493      2.439978     -0.657274
  C      -3.142988     -0.851611      0.264120
  H      -2.047759      0.751754      1.160425
  H      -4.066468     -0.648939      0.804703
  H      -3.411385     -1.234962     -0.721207
  H      -2.614713     -1.633504      0.807511
  C      -0.850285      0.367452     -1.753390
  C       0.488312      0.194364     -2.256915
  H      -1.653122      0.716090     -2.396825
  C       1.593087      0.406577     -1.442504
  C       2.789855      0.068102     -2.132645
  S       0.905117     -0.349645     -3.820851
  C       2.569342     -0.343413     -3.412387
  H       1.554547      1.330226     -0.600537
  H       3.780066      0.181618     -1.715832
  H       3.302347     -0.624396     -4.153544
  H      -0.831040     -3.186522     -0.147458
  H      -0.783499     -2.388091      2.452442
  H       1.732349     -1.594075      3.013614
  O       1.441341      2.385953      0.221590
  O       0.536974      0.943769      1.661295
  C       0.977918      2.102998      1.333283
  C       0.936402      3.138651      2.418623
  H       0.898311      4.139463      1.996971
  H       1.849211      3.063500      3.012938
  H       0.095943      2.982057      3.090764
  H       3.228980     -1.925377      0.821090
  H       1.633273     -2.894299     -1.147697
39
Coordinates from ORCA-job reaction4-IEIP_ts_guess_scan_3-11_orca E -1288.395612942046
  Ir      0.583555     -0.736330      0.503164
  C       0.034054     -2.819355      0.389173
  C       0.037747     -2.360385      1.755305
  C       2.176065     -2.145134      0.920045
  C       1.331222     -2.661618     -0.132863
  C       1.386844     -1.994992      2.075251
  N      -1.037089      0.135975     -0.506469
  C      -2.319930      0.423730      0.157767
  C      -3.106574      1.547913     -0.498992
  H      -3.939125      1.820488      0.148220
  H      -3.540951      1.259765     -1.457349
  H      -2.499334      2.441994     -0.642218
  C      -3.144509     -0.854242      0.257014
  H      -2.047492      0.741022      1.165600
  H      -4.067863     -0.654403      0.798882
  H      -3.413213     -1.229683     -0.731278
  H      -2.617392     -1.641171      0.794250
  C      -0.851398      0.366355     -1.752043
  C       0.486265      0.194516     -2.258020
  H      -1.655862      0.714001     -2.393995
  C       1.592297      0.402636     -1.444438
  C       2.787895      0.066416     -2.137429
  S       0.900770     -0.343174     -3.824943
  C       2.565191     -0.340305     -3.418434
  H       1.556818      1.325015     -0.599904
  H       3.778817      0.177779     -1.721755
  H       3.297163     -0.618982     -4.161480
  H      -0.823910     -3.188973     -0.153752
  H      -0.791761     -2.389456      2.446276
  H       1.719883     -1.593220      3.021553
  O       1.447389      2.383406      0.219302
  O       0.538586      0.945265      1.660442
  C       0.980789      2.103589      1.330569
  C       0.936691      3.141841      2.413183
  H       0.896786      4.141525      1.988978
  H       1.849534      3.070134      3.007855
  H       0.096274      2.985177      3.085319
  H       3.229653     -1.924016      0.837855
  H       1.645484     -2.893916     -1.139902
39
Coordinates from ORCA-job reaction4-IEIP_ts_guess_scan_3-11_orca E -1288.395614618901
  Ir      0.585044     -0.736724      0.504370
  C       0.038538     -2.820718      0.387738
  C       0.032069     -2.360917      1.753607
  C       2.176255     -2.143577      0.933518
  C       1.339328     -2.661831     -0.124765
  C       1.378172     -1.993780      2.082885
  N      -1.036383      0.134058     -0.504713
  C      -2.319339      0.419346      0.160587
  C      -3.102709      1.550664     -0.487909
  H      -3.935141      1.820467      0.160593
  H      -3.536884      1.270818     -1.448781
  H      -2.492822      2.444051     -0.623910
  C      -3.146636     -0.857762      0.248285
  H      -2.047453      0.727692      1.171311
  H      -4.069262     -0.661507      0.792694
  H      -3.416676     -1.223165     -0.743408
  H      -2.620387     -1.650931      0.777168
  C      -0.852748      0.365359     -1.750436
  C       0.483728      0.194925     -2.259589
  H      -1.658834      0.712847     -2.390487
  C       1.591180      0.398136     -1.446974
  C       2.785383      0.064158     -2.143293
  S       0.895233     -0.333842     -3.830287
  C       2.560200     -0.335500     -3.426111
  H       1.559283      1.318965     -0.599298
  H       3.777052      0.171945     -1.728473
  H       3.290889     -0.611355     -4.171456
  H      -0.814944     -3.192176     -0.160948
  H      -0.802180     -2.390787      2.438817
  H       1.703699     -1.590837      3.031328
  O       1.455366      2.380416      0.216661
  O       0.540302      0.947152      1.658689
  C       0.984627      2.103974      1.327201
  C       0.938269      3.145408      2.406635
  H       0.896764      4.143804      1.979531
  H       1.851238      3.077314      3.001537
  H       0.097954      2.989152      3.078964
  H       3.230321     -1.922156      0.859031
  H       1.660878     -2.893898     -1.129571
39
Coordinates from ORCA-job reaction4-IEIP_ts_guess_scan_3-11_orca E -1288.395614102532
  Ir      0.585889     -0.737183      0.504880
  C       0.041696     -2.821728      0.386847
  C       0.028220     -2.361347      1.752462
  C       2.176327     -2.142300      0.942589
  C       1.344952     -2.662155     -0.119224
  C       1.372112     -1.992568      2.087888
  N      -1.036326      0.132505     -0.503957
  C      -2.319342      0.416442      0.161995
  C      -3.100849      1.551908     -0.481471
  H      -3.933530      1.819515      0.167611
  H      -3.534525      1.277213     -1.444036
  H      -2.489725      2.445161     -0.612646
  C      -3.148304     -0.860066      0.242929
  H      -2.047761      0.719519      1.174384
  H      -4.069906     -0.666138      0.789889
  H      -3.420138     -1.218857     -0.750687
  H      -2.622122     -1.657266      0.765796
  C      -0.853659      0.365026     -1.749464
  C       0.482082      0.195074     -2.260574
  H      -1.660339      0.713295     -2.388395
  C       1.590378      0.395523     -1.448563
  C       2.783749      0.063302     -2.147204
  S       0.891467     -0.328290     -3.833404
  C       2.557068     -0.332284     -3.430951
  H       1.560369      1.315363     -0.599073
  H       3.775829      0.169094     -1.732857
  H       3.286869     -0.606274     -4.177833
  H      -0.808755     -3.194475     -0.165654
  H      -0.809191     -2.391805      2.433782
  H       1.692415     -1.588444      3.037630
  O       1.460728      2.378535      0.215178
  O       0.541127      0.948357      1.657168
  C       0.987337      2.103935      1.325178
  C       0.940510      3.147359      2.402767
  H       0.898325      4.144991      1.973955
  H       1.853786      3.081102      2.997417
  H       0.100490      2.991780      3.075621
  H       3.230681     -1.920676      0.873280
  H       1.671436     -2.893951     -1.122509
39
Coordinates from ORCA-job reaction4-IEIP_ts_guess_scan_3-11_orca E -1288.395613463889
  Ir      0.585989     -0.737356      0.504898
  C       0.043481     -2.822138      0.385944
  C       0.026168     -2.361656      1.751490
  C       2.176303     -2.141137      0.947048
  C       1.348041     -2.662002     -0.116680
  C       1.368784     -1.991639      2.090153
  N      -1.036649      0.131784     -0.503876
  C      -2.319630      0.415148      0.162460
  C      -3.100661      1.552064     -0.478977
  H      -3.933676      1.818278      0.170256
  H      -3.533887      1.279493     -1.442342
  H      -2.489453      2.445582     -0.607898
  C      -3.149067     -0.861216      0.240862
  H      -2.048111      0.716321      1.175430
  H      -4.069810     -0.668495      0.789686
  H      -3.422379     -1.216964     -0.753438
  H      -2.622435     -1.660215      0.760528
  C      -0.854248      0.365140     -1.749166
  C       0.481210      0.195147     -2.261044
  H      -1.660908      0.714220     -2.387707
  C       1.589832      0.394617     -1.449301
  C       2.782871      0.062794     -2.148746
  S       0.889669     -0.326446     -3.834523
  C       2.555667     -0.331050     -3.432885
  H       1.560497      1.313965     -0.599190
  H       3.775051      0.167703     -1.734411
  H       3.285030     -0.604329     -4.180443
  H      -0.805317     -3.195581     -0.168628
  H      -0.812912     -2.392596      2.430730
  H       1.686229     -1.586774      3.040553
  O       1.463486      2.377700      0.214640
  O       0.541161      0.949016      1.656185
  C       0.988876      2.103841      1.324360
  C       0.942641      3.148021      2.401334
  H       0.900319      4.145353      1.971848
  H       1.856280      3.082211      2.995479
  H       0.102999      2.993028      3.074798
  H       3.230775     -1.919272      0.880522
  H       1.677156     -2.893369     -1.119208
39
Coordinates from ORCA-job reaction4-IEIP_ts_guess_scan_3-11_orca E -1288.395613209376
  Ir      0.585832     -0.737416      0.504849
  C       0.044818     -2.822412      0.384969
  C       0.024922     -2.362069      1.750558
  C       2.176329     -2.140064      0.949707
  C       1.350198     -2.661598     -0.115350
  C       1.366660     -1.991045      2.091395
  N      -1.037039      0.131502     -0.503956
  C      -2.319937      0.414609      0.162656
  C      -3.100900      1.552039     -0.477924
  H      -3.934185      1.817377      0.171333
  H      -3.533793      1.280436     -1.441708
  H      -2.489867      2.445839     -0.605685
  C      -3.149497     -0.861732      0.240052
  H      -2.048381      0.715128      1.175806
  H      -4.069626     -0.669675      0.790137
  H      -3.423864     -1.215935     -0.754505
  H      -2.622455     -1.661644      0.757887
  C      -0.854750      0.365280     -1.749139
  C       0.480599      0.195108     -2.261300
  H      -1.661291      0.714874     -2.387557
  C       1.589373      0.394232     -1.449693
  C       2.782270      0.062608     -2.149472
  S       0.888658     -0.326263     -3.834885
  C       2.554838     -0.330874     -3.433667
  H       1.560253      1.313371     -0.599454
  H       3.774476      0.167401     -1.735171
  H       3.283935     -0.603913     -4.181569
  H      -0.802826     -3.196359     -0.171032
  H      -0.815258     -2.393498      2.428415
  H       1.682202     -1.585762      3.042258
  O       1.464983      2.377258      0.214384
  O       0.540948      0.949410      1.655585
  C       0.989828      2.103799      1.323984
  C       0.944410      3.148175      2.400835
  H       0.901852      4.145386      1.971086
  H       1.858497      3.082478      2.994303
  H       0.105260      2.993471      3.074973
  H       3.230845     -1.917878      0.885062
  H       1.681051     -2.892457     -1.117427
