39
Coordinates from ORCA-job reaction4-IEIP_ts_guess_scan_0-12_orca E -1288.390939587730
  Ir      0.560975     -0.745206      0.517764
  C       0.003073     -2.819247      0.376723
  C       0.073314     -2.382441      1.750135
  C       2.168297     -2.162588      0.822460
  C       1.273498     -2.653159     -0.202124
  C       1.440943     -2.034766      2.017707
  N      -1.039345      0.150753     -0.502008
  C      -2.322964      0.474969      0.142854
  C      -3.125781      1.534210     -0.595702
  H      -3.962810      1.840388      0.030291
  H      -3.555011      1.169644     -1.530288
  H      -2.534244      2.426171     -0.804345
  C      -3.132489     -0.799477      0.348357
  H      -2.048611      0.874110      1.120999
  H      -4.058126     -0.564106      0.871466
  H      -3.396886     -1.258961     -0.605009
  H      -2.599293     -1.532404      0.952252
  C      -0.826780      0.355409     -1.745596
  C       0.523249      0.165592     -2.224189
  H      -1.614002      0.697276     -2.412020
  C       1.632390      0.536306     -1.474672
  C       2.829020      0.161865     -2.148105
  S       0.934589     -0.556039     -3.721449
  C       2.605477     -0.423675     -3.356423
  H       1.542329      1.419647     -0.625151
  H       3.820512      0.370438     -1.772878
  H       3.337442     -0.768851     -4.071086
  H      -0.883203     -3.171715     -0.131069
  H      -0.723687     -2.420622      2.478307
  H       1.821403     -1.656845      2.955765
  O       1.358710      2.403031      0.249115
  O       0.539164      0.911623      1.693708
  C       0.940952      2.089976      1.367396
  C       0.906039      3.101243      2.476637
  H       0.856886      4.110311      2.076541
  H       1.825343      3.019252      3.060033
  H       0.074543      2.926302      3.155778
  H       3.214450     -1.930689      0.687439
  H       1.540004     -2.858534     -1.228876
39
Coordinates from ORCA-job reaction4-IEIP_ts_guess_scan_0-12_orca E -1288.390965518982
  Ir      0.560792     -0.744493      0.518123
  C       0.002957     -2.818736      0.377070
  C       0.072702     -2.381868      1.750525
  C       2.168055     -2.161865      0.823463
  C       1.273646     -2.652577     -0.201411
  C       1.440224     -2.034070      2.018512
  N      -1.039306      0.150780     -0.502070
  C      -2.323470      0.474078      0.142209
  C      -3.126451      1.532975     -0.596679
  H      -3.964006      1.838675      0.028853
  H      -3.554938      1.168271     -1.531541
  H      -2.535234      2.425231     -0.804953
  C      -3.132317     -0.800913      0.346970
  H      -2.049983      0.873153      1.120623
  H      -4.058372     -0.566329      0.869711
  H      -3.395933     -1.260285     -0.606663
  H      -2.598881     -1.533671      0.950860
  C      -0.826561      0.355239     -1.745934
  C       0.523249      0.164763     -2.225335
  H      -1.613914      0.697130     -2.412213
  C       1.632709      0.533970     -1.476000
  C       2.828535      0.158764     -2.150623
  S       0.933036     -0.553205     -3.724942
  C       2.604053     -0.424744     -3.359799
  H       1.543235      1.421808     -0.621669
  H       3.820453      0.365555     -1.775476
  H       3.335353     -0.769750     -4.075256
  H      -0.883125     -3.171310     -0.130986
  H      -0.724526     -2.420122      2.478437
  H       1.820342     -1.656140      2.956708
  O       1.361082      2.405562      0.252488
  O       0.539275      0.914329      1.694957
  C       0.942280      2.092527      1.370230
  C       0.907678      3.103208      2.479779
  H       0.858925      4.112547      2.080242
  H       1.826955      3.020564      3.063126
  H       0.076080      2.928090      3.158660
  H       3.214249     -1.929970      0.688806
  H       1.540522     -2.857983     -1.228064
39
Coordinates from ORCA-job reaction4-IEIP_ts_guess_scan_0-12_orca E -1288.390971426892
  Ir      0.560893     -0.744456      0.519508
  C       0.002742     -2.818533      0.378973
  C       0.071311     -2.381321      1.752316
  C       2.167605     -2.161862      0.827066
  C       1.274052     -2.652708     -0.198460
  C       1.438618     -2.033532      2.021384
  N      -1.038784      0.150287     -0.502073
  C      -2.323253      0.473396      0.141747
  C      -3.125840      1.532621     -0.597126
  H      -3.963587      1.838295      0.028165
  H      -3.554038      1.168237     -1.532237
  H      -2.534391      2.424816     -0.804983
  C      -3.132327     -0.801583      0.345668
  H      -2.050273      0.872101      1.120465
  H      -4.058610     -0.567150      0.868078
  H      -3.395523     -1.260571     -0.608268
  H      -2.599195     -1.534598      0.949490
  C      -0.826211      0.354441     -1.746170
  C       0.523189      0.164256     -2.226617
  H      -1.613945      0.696246     -2.412036
  C       1.632975      0.530567     -1.476727
  C       2.828137      0.157917     -2.153936
  S       0.931454     -0.551503     -3.727842
  C       2.602767     -0.420486     -3.365442
  H       1.544108      1.420650     -0.619810
  H       3.820399      0.364251     -1.779391
  H       3.333491     -0.761800     -4.083241
  H      -0.882925     -3.171142     -0.129774
  H      -0.726573     -2.419272      2.479514
  H       1.817901     -1.655303      2.959795
  O       1.363581      2.405189      0.253800
  O       0.539095      0.914546      1.695056
  C       0.943354      2.092176      1.371269
  C       0.908630      3.103028      2.480411
  H       0.859900      4.112346      2.080783
  H       1.827909      3.020481      3.063763
  H       0.076949      2.927838      3.159120
  H       3.213969     -1.930235      0.693318
  H       1.541816     -2.858440     -1.224816
39
Coordinates from ORCA-job reaction4-IEIP_ts_guess_scan_0-12_orca E -1288.390976305347
  Ir      0.561054     -0.744311      0.520280
  C       0.002726     -2.818263      0.380649
  C       0.070352     -2.380513      1.753801
  C       2.167395     -2.161612      0.829937
  C       1.274514     -2.652787     -0.195997
  C       1.437466     -2.032611      2.023634
  N      -1.038566      0.149593     -0.502274
  C      -2.323396      0.471688      0.141446
  C      -3.125776      1.531995     -0.596148
  H      -3.963662      1.836868      0.029348
  H      -3.553787      1.168944     -1.531858
  H      -2.534204      2.424417     -0.802664
  C      -3.132587     -0.803575      0.343126
  H      -2.050985      0.868982      1.120901
  H      -4.059129     -0.569934      0.865435
  H      -3.395303     -1.261169     -0.611613
  H      -2.599722     -1.537466      0.946101
  C      -0.826350      0.354579     -1.746394
  C       0.522679      0.166147     -2.228124
  H      -1.614654      0.696615     -2.411451
  C       1.632711      0.528989     -1.477284
  C       2.827402      0.156424     -2.155224
  S       0.930066     -0.541782     -3.733373
  C       2.601357     -0.418823     -3.368159
  H       1.544974      1.420047     -0.618773
  H       3.819973      0.359107     -1.779471
  H       3.331717     -0.760352     -4.086208
  H      -0.882594     -3.171038     -0.128584
  H      -0.728050     -2.418115      2.480442
  H       1.816072     -1.653934      2.962138
  O       1.366591      2.405588      0.254147
  O       0.539287      0.915546      1.694438
  C       0.944844      2.092548      1.371387
  C       0.910263      3.103722      2.480056
  H       0.861289      4.112949      2.080233
  H       1.829776      3.021484      3.063086
  H       0.078764      2.928455      3.158953
  H       3.213900     -1.930233      0.696877
  H       1.542962     -2.858974     -1.222077
39
Coordinates from ORCA-job reaction4-IEIP_ts_guess_scan_0-12_orca E -1288.390980340160
  Ir      0.560863     -0.744941      0.521025
  C       0.001900     -2.818716      0.382180
  C       0.068944     -2.380380      1.755155
  C       2.166590     -2.162643      0.832282
  C       1.274047     -2.653956     -0.193893
  C       1.436022     -2.032788      2.025516
  N      -1.038304      0.148748     -0.502146
  C      -2.323412      0.470110      0.141499
  C      -3.125334      1.531783     -0.594664
  H      -3.963235      1.835983      0.031138
  H      -3.553326      1.170293     -1.530987
  H      -2.533435      2.424318     -0.799745
  C      -3.133042     -0.805249      0.340884
  H      -2.051403      0.865861      1.121690
  H      -4.059787     -0.572163      0.863086
  H      -3.395395     -1.261350     -0.614667
  H      -2.600664     -1.540190      0.943008
  C      -0.826235      0.354360     -1.746194
  C       0.522556      0.167030     -2.228471
  H      -1.614952      0.696038     -2.410953
  C       1.632748      0.527704     -1.476834
  C       2.827384      0.157009     -2.155739
  S       0.929797     -0.537954     -3.735131
  C       2.601143     -0.414753     -3.370323
  H       1.545578      1.418476     -0.618688
  H       3.820008      0.358887     -1.779718
  H       3.331451     -0.754021     -4.089499
  H      -0.883253     -3.171438     -0.127382
  H      -0.729859     -2.417386      2.481387
  H       1.814257     -1.653803      2.964047
  O       1.368609      2.405151      0.253238
  O       0.539744      0.916394      1.694141
  C       0.946080      2.092844      1.370560
  C       0.911908      3.104982      2.478385
  H       0.862441      4.113847      2.077750
  H       1.831854      3.023519      3.060853
  H       0.080884      2.930067      3.157976
  H       3.213270     -1.931776      0.699711
  H       1.542928     -2.860705     -1.219738
39
Coordinates from ORCA-job reaction4-IEIP_ts_guess_scan_0-12_orca E -1288.390987766147
  Ir      0.560539     -0.745994      0.523414
  C       0.001734     -2.819608      0.384904
  C       0.065953     -2.380562      1.757727
  C       2.165644     -2.163618      0.839060
  C       1.275094     -2.655288     -0.188685
  C       1.432485     -2.032880      2.030639
  N      -1.037609      0.146608     -0.501567
  C      -2.323079      0.466991      0.142075
  C      -3.123141      1.532405     -0.590780
  H      -3.960736      1.835810      0.035826
  H      -3.551517      1.174830     -1.528427
  H      -2.529729      2.424647     -0.792689
  C      -3.134604     -0.808030      0.336110
  H      -2.051661      0.858986      1.123943
  H      -4.061708     -0.575579      0.857962
  H      -3.396327     -1.260541     -0.621317
  H      -2.603922     -1.545736      0.936326
  C      -0.826349      0.352802     -1.745724
  C       0.521721      0.167884     -2.229712
  H      -1.616306      0.693279     -2.409664
  C       1.632537      0.523337     -1.476491
  C       2.826881      0.157508     -2.158129
  S       0.928336     -0.528248     -3.740598
  C       2.599824     -0.405955     -3.376566
  H       1.546824      1.413252     -0.618102
  H       3.819729      0.357014     -1.781503
  H       3.329800     -0.740021     -4.098519
  H      -0.882308     -3.172611     -0.126379
  H      -0.734388     -2.417056      2.482286
  H       1.808794     -1.653366      2.969732
  O       1.373339      2.402613      0.251478
  O       0.539574      0.917354      1.693527
  C       0.948207      2.092354      1.368691
  C       0.914267      3.106960      2.474377
  H       0.863084      4.114849      2.071550
  H       1.835262      3.028017      3.055554
  H       0.084460      2.932587      3.155606
  H       3.212687     -1.933181      0.708672
  H       1.545979     -2.862624     -1.213867
39
Coordinates from ORCA-job reaction4-IEIP_ts_guess_scan_0-12_orca E -1288.390992929991
  Ir      0.560534     -0.746317      0.525168
  C       0.002142     -2.819971      0.386151
  C       0.063932     -2.380695      1.758991
  C       2.165300     -2.163848      0.844000
  C       1.276502     -2.655683     -0.185209
  C       1.429973     -2.032888      2.034216
  N      -1.037162      0.145595     -0.501081
  C      -2.322954      0.464928      0.142584
  C      -3.121730      1.533116     -0.587716
  H      -3.959202      1.835724      0.039450
  H      -3.550242      1.178539     -1.526433
  H      -2.527274      2.425223     -0.787086
  C      -3.135470     -0.810131      0.332208
  H      -2.052114      0.853914      1.125791
  H      -4.062904     -0.578627      0.853901
  H      -3.396590     -1.259726     -0.626756
  H      -2.605759     -1.549939      0.930712
  C      -0.826735      0.351831     -1.745487
  C       0.520736      0.168357     -2.230868
  H      -1.617697      0.691180     -2.408815
  C       1.632005      0.520334     -1.476718
  C       2.826044      0.156988     -2.159863
  S       0.926859     -0.521621     -3.744669
  C       2.598358     -0.401234     -3.380711
  H       1.547529      1.409696     -0.617290
  H       3.819074      0.354454     -1.782675
  H       3.328040     -0.732504     -4.104247
  H      -0.880912     -3.173200     -0.126689
  H      -0.737705     -2.417086      2.482119
  H       1.804611     -1.653215      2.973916
  O       1.376686      2.400954      0.250651
  O       0.539567      0.918402      1.693597
  C       0.949867      2.092464      1.367764
  C       0.915977      3.108715      2.472000
  H       0.862898      4.115895      2.067623
  H       1.838008      3.032034      3.051835
  H       0.087429      2.934317      3.154726
  H       3.212616     -1.933590      0.715534
  H       1.549134     -2.863198     -1.209884
39
Coordinates from ORCA-job reaction4-IEIP_ts_guess_scan_0-12_orca E -1288.391000903881
  Ir      0.560558     -0.746365      0.527993
  C       0.003515     -2.820344      0.387233
  C       0.060570     -2.380913      1.760217
  C       2.164995     -2.163369      0.852312
  C       1.279693     -2.655568     -0.179769
  C       1.425563     -2.032615      2.039993
  N      -1.036328      0.144114     -0.499936
  C      -2.322605      0.461754      0.143855
  C      -3.118924      1.534919     -0.581941
  H      -3.956142      1.836312      0.046166
  H      -3.547688      1.185668     -1.522521
  H      -2.522411      2.426615     -0.776858
  C      -3.136905     -0.813332      0.325590
  H      -2.052706      0.845304      1.129425
  H      -4.064823     -0.583600      0.847229
  H      -3.397143     -1.257560     -0.636111
  H      -2.608770     -1.556967      0.920747
  C      -0.827494      0.349824     -1.744889
  C       0.518958      0.168232     -2.232700
  H      -1.620164      0.687195     -2.407193
  C       1.631069      0.515294     -1.477555
  C       2.824482      0.155812     -2.163257
  S       0.924092     -0.512481     -3.750887
  C       2.595590     -0.395155     -3.387373
  H       1.548699      1.403377     -0.615674
  H       3.817845      0.350647     -1.785620
  H       3.324655     -0.722332     -4.113388
  H      -0.877550     -3.174137     -0.128632
  H      -0.743521     -2.417510      2.480604
  H       1.796899     -1.652820      2.980957
  O       1.382063      2.397746      0.249523
  O       0.539144      0.920067      1.694028
  C       0.952286      2.092682      1.366376
  C       0.918125      3.111536      2.468256
  H       0.861128      4.117507      2.061329
  H       1.842131      3.039226      3.045502
  H       0.092013      2.936566      3.153701
  H       3.212745     -1.933089      0.727546
  H       1.555726     -2.863049     -1.203535
39
Coordinates from ORCA-job reaction4-IEIP_ts_guess_scan_0-12_orca E -1288.391005227431
  Ir      0.560943     -0.746137      0.529452
  C       0.005102     -2.820569      0.387445
  C       0.058966     -2.380902      1.760501
  C       2.165340     -2.162568      0.857298
  C       1.282432     -2.655244     -0.176633
  C       1.423207     -2.032115      2.043322
  N      -1.036012      0.143404     -0.499204
  C      -2.322582      0.459957      0.144736
  C      -3.117099      1.536567     -0.577975
  H      -3.954213      1.837157      0.050665
  H      -3.545899      1.190977     -1.519876
  H      -2.519088      2.427924     -0.769756
  C      -3.138131     -0.815122      0.320959
  H      -2.053303      0.839666      1.131938
  H      -4.066242     -0.586727      0.842858
  H      -3.398023     -1.255401     -0.642651
  H      -2.610907     -1.561530      0.913444
  C      -0.828249      0.348665     -1.744514
  C       0.517620      0.167935     -2.233810
  H      -1.621905      0.685080     -2.406133
  C       1.630242      0.512767     -1.478472
  C       2.823192      0.154617     -2.165362
  S       0.922004     -0.508529     -3.754073
  C       2.593510     -0.393005     -3.390934
  H       1.549279      1.399698     -0.614595
  H       3.816771      0.348131     -1.787621
  H       3.322138     -0.718583     -4.118103
  H      -0.874592     -3.174928     -0.130360
  H      -0.746730     -2.417749      2.479085
  H       1.792279     -1.652174      2.985119
  O       1.385010      2.395856      0.248995
  O       0.539061      0.921034      1.694494
  C       0.953670      2.092972      1.365740
  C       0.919108      3.113160      2.466322
  H       0.858866      4.118436      2.058066
  H       1.844637      3.044082      3.041514
  H       0.094884      2.937143      3.153701
  H       3.213329     -1.932115      0.734952
  H       1.560753     -2.862639     -1.199798
39
Coordinates from ORCA-job reaction4-IEIP_ts_guess_scan_0-12_orca E -1288.391007426123
  Ir      0.561234     -0.745821      0.530131
  C       0.006309     -2.820688      0.387488
  C       0.057597     -2.380472      1.760492
  C       2.165521     -2.161670      0.861018
  C       1.284558     -2.655015     -0.174261
  C       1.421212     -2.031246      2.045703
  N      -1.035791      0.142844     -0.498578
  C      -2.322574      0.458435      0.145534
  C      -3.115625      1.538020     -0.574371
  H      -3.952710      1.837764      0.054715
  H      -3.544369      1.195617     -1.517449
  H      -2.516407      2.429155     -0.763334
  C      -3.139084     -0.816694      0.316987
  H      -2.053766      0.834720      1.134157
  H      -4.067163     -0.589665      0.839547
  H      -3.399033     -1.253297     -0.648281
  H      -2.612319     -1.565618      0.906711
  C      -0.828717      0.347903     -1.744063
  C       0.516793      0.167524     -2.234382
  H      -1.622950      0.684000     -2.405163
  C       1.629865      0.511251     -1.479297
  C       2.822361      0.153936     -2.167288
  S       0.920290     -0.506927     -3.755784
  C       2.591904     -0.392295     -3.393372
  H       1.549989      1.397065     -0.613771
  H       3.816153      0.347088     -1.789916
  H       3.320081     -0.717085     -4.121341
  H      -0.872296     -3.175625     -0.131759
  H      -0.749382     -2.417362      2.477637
  H       1.788424     -1.650938      2.988083
  O       1.387299      2.394557      0.248576
  O       0.539022      0.921746      1.694611
  C       0.954686      2.093253      1.365213
  C       0.919686      3.114276      2.464907
  H       0.856592      4.119080      2.055856
  H       1.846512      3.047904      3.038326
  H       0.097051      2.937060      3.153827
  H       3.213698     -1.931106      0.740542
  H       1.564719     -2.862485     -1.196912
