! Opt PBEh-3c
%geom Constraints
{ B 0 20 2.1714285714285713 C }
{ B 24 30 1.3285714285714287 C }
    end
end
%output 
xyzfile=True 
end 
%scf 
maxiter 250 
end
%output
Print[P_Hirshfeld] = 1
end
% maxcore
4000
*xyz 1 1
Ir   0.60494975  -0.73432018   0.45402355 
C    0.12028963  -2.84159625   0.36296132 
C   -0.08647646  -2.37574023   1.70987387 
C    2.14580323  -2.08208226   1.17714307 
C    1.48316668  -2.66456525   0.04071922 
C    1.17176140  -1.93476133   2.19780800 
N   -1.06272288   0.11155037  -0.50598822 
C   -2.34336188   0.31190450   0.19121608 
C   -3.13364462   1.51233142  -0.31050858 
H   -3.96874155   1.69090850   0.36506600 
H   -3.56303895   1.35467455  -1.30078503 
H   -2.52889855   2.41921855  -0.33025107 
C   -3.16751949  -0.96841319   0.11453098 
H   -2.07426606   0.49598674   1.23236377 
H   -4.08077904  -0.85825428   0.69793153 
H   -3.45382269  -1.19020627  -0.91437304 
H   -2.62814861  -1.82768328   0.50979504 
C   -0.90626332   0.45068012  -1.73266551 
C    0.41143919   0.29363200  -2.27170913 
H   -1.72062302   0.86251562  -2.32069684 
C    1.47612022   0.11814228  -1.39460596 
C    2.67621530  -0.12478033  -2.12306374 
S    0.86377715   0.19864204  -3.90812991 
C    2.49146796  -0.10143708  -3.47369650 
H    1.64426715   1.15358548  -0.58426961 
H    3.64739230  -0.25260081  -1.66744146 
H    3.23683572  -0.22640225  -4.24444100 
H   -0.63024534  -3.26612544  -0.28775726 
H   -1.00527354  -2.41837997   2.27475734 
H    1.34452325  -1.49006535   3.16779232 
O    1.75827519   2.27296772   0.14870437 
O    0.55450479   1.02403614   1.54138451 
C    1.14057037   2.10401039   1.22002359 
C    1.09975526   3.22716710   2.21248021 
H    0.98157115   4.18153684   1.70415864 
H    2.05152106   3.26275959   2.74527001 
H    0.30569726   3.09016653   2.94088702 
H    3.19810814  -1.85994000   1.26396669 
H    1.94518375  -2.91987277  -0.90173427 
*
