! Opt PBEh-3c
%geom Constraints
{ B 0 20 2.5571428571428574 C }
{ B 24 30 1.457142857142857 C }
    end
end
%output 
xyzfile=True 
end 
%scf 
maxiter 250 
end
%output
Print[P_Hirshfeld] = 1
end
% maxcore
4000
*xyz 1 1
Ir   0.57736794  -0.73073427   0.47584652 
C    0.02600208  -2.81018095   0.33540620 
C    0.11682231  -2.37037306   1.70826853 
C    2.19434695  -2.14296818   0.74758461 
C    1.28615542  -2.64014651  -0.26211488 
C    1.48759221  -2.01939762   1.95520902 
N   -1.03907794   0.17976100  -0.51146388 
C   -2.31070952   0.52514483   0.14314724 
C   -3.12938279   1.55214173  -0.62154677 
H   -3.96318408   1.87125269   0.00215506 
H   -3.56337774   1.15170758  -1.53923512 
H   -2.54853160   2.44251080  -0.86449827 
C   -3.10916705  -0.74495122   0.40923254 
H   -2.01856641   0.95949203   1.10080645 
H   -4.02340372  -0.49501558   0.94531741 
H   -3.39375645  -1.23693660  -0.52185624 
H   -2.55916030  -1.45508885   1.02526242 
C   -0.82208480   0.38071508  -1.75225610 
C    0.53163793   0.14313846  -2.21389503 
H   -1.59275632   0.74506361  -2.42576117 
C    1.64690942   0.57048179  -1.50478918 
C    2.84212164   0.13443429  -2.14505309 
S    0.93679848  -0.71576822  -3.63698681 
C    2.61172152  -0.56010342  -3.29067525 
H    1.55639990   1.41828023  -0.71477730 
H    3.83382411   0.37529096  -1.79082025 
H    3.33888862  -0.97505912  -3.97218767 
H   -0.86721317  -3.16709340  -0.15682763 
H   -0.66806528  -2.41001328   2.44957804 
H    1.88102953  -1.63806415   2.88653112 
O    1.25735995   2.45923289   0.28126222 
O    0.54267999   0.88619118   1.69399080 
C    0.88314114   2.09966396   1.39104609 
C    0.81733490   3.06240560   2.54421775 
H    0.75456265   4.08585175   2.18459177 
H    1.72918523   2.97206755   3.13773308 
H   -0.01949594   2.84764316   3.20570357 
H    3.23680772  -1.90525320   0.59489721 
H    1.53861343  -2.84613351  -1.29230295 
*
