39
Generated by autodE on: 2023-08-13. E = -1288.398598 Ha
Ir    0.59505  -0.71927   0.45742
C     0.04375  -2.80446   0.35495
C     0.10172  -2.35150   1.72199
C     2.20252  -2.12821   0.80122
C     1.31810  -2.64403  -0.21927
C     1.46183  -1.98401   1.98872
N    -1.04547   0.15972  -0.52025
C    -2.31737   0.47316   0.15004
C    -3.12039   1.55983  -0.54708
H    -3.94890   1.85274   0.09640
H    -3.56175   1.22675  -1.48776
H    -2.52377   2.45315  -0.73412
C    -3.13079  -0.80367   0.32464
H    -2.02740   0.83859   1.13646
H    -4.04494  -0.58218   0.87338
H    -3.41529  -1.22728  -0.63943
H    -2.58911  -1.56020   0.89052
C    -0.85429   0.37481  -1.76503
C     0.49238   0.16520  -2.24356
H    -1.64271   0.73255  -2.42088
C     1.58799   0.43993  -1.43157
C     2.79536   0.04994  -2.07991
S     0.92797  -0.51308  -3.74481
C     2.59093  -0.47159  -3.31906
H     1.52911   1.34300  -0.64863
H     3.77905   0.20325  -1.66042
H     3.33127  -0.81457  -4.02595
H    -0.83639  -3.17072  -0.15381
H    -0.69934  -2.38328   2.44562
H     1.83252  -1.58477   2.92192
O     1.34819   2.44536   0.24182
O     0.53386   0.92640   1.65651
C     0.92745   2.11507   1.35037
C     0.87312   3.10628   2.47838
H     0.83855   4.12293   2.09649
H     1.77736   3.00701   3.08214
H     0.02493   2.92431   3.13492
H     3.25112  -1.90299   0.67636
H     1.59315  -2.87498  -1.23800
