39
Generated by autodE on: 2023-08-14. E = -1288.400871 Ha
Ir    0.62261  -0.71998   0.43535
C     0.12920  -2.83054   0.32716
C    -0.00409  -2.37443   1.68608
C     2.19637  -2.08430   1.04007
C     1.46915  -2.64875  -0.06962
C     1.28514  -1.94687   2.11356
N    -1.05130   0.13031  -0.51227
C    -2.31764   0.38156   0.19362
C    -3.09816   1.56703  -0.35537
H    -3.92181   1.79032   0.32125
H    -3.54331   1.36682  -1.33088
H    -2.48191   2.46347  -0.42704
C    -3.15722  -0.89113   0.19337
H    -2.02667   0.60967   1.21982
H    -4.05720  -0.74006   0.78786
H    -3.46650  -1.15907  -0.81773
H    -2.61943  -1.73552   0.62180
C    -0.89987   0.40806  -1.75335
C     0.42537   0.21917  -2.27456
H    -1.70948   0.79776  -2.36273
C     1.49672   0.19485  -1.38181
C     2.70572  -0.10366  -2.08048
S     0.87749  -0.09905  -3.87831
C     2.51958  -0.28151  -3.41642
H     1.55984   1.18335  -0.63554
H     3.68041  -0.12745  -1.61523
H     3.26591  -0.48765  -4.16852
H    -0.66034  -3.23899  -0.28686
H    -0.89166  -2.42114   2.29882
H     1.51332  -1.51680   3.07861
O     1.54758   2.37600   0.15074
O     0.55541   0.98518   1.57827
C     1.03211   2.12678   1.24815
C     0.96851   3.19119   2.30566
H     0.92392   4.17983   1.85639
H     1.87758   3.14342   2.90809
H     0.12302   3.04376   2.97314
H     3.25151  -1.85990   1.06831
H     1.87947  -2.89254  -1.03869
