39
Coordinates from ORCA-job reaction4-IEIP_ts_guess_scan_9-12_orca E -1288.403260492712
  Ir      0.606067     -0.727110      0.452856
  C       0.104568     -2.830731      0.362264
  C      -0.057538     -2.360035      1.713297
  C       2.161636     -2.089181      1.112212
  C       1.456295     -2.660297     -0.006356
  C       1.225041     -1.933624      2.163845
  N      -1.058106      0.121966     -0.510956
  C      -2.338940      0.331085      0.183878
  C      -3.135613      1.516947     -0.341756
  H      -3.969316      1.707225      0.332404
  H      -3.567850      1.334853     -1.326605
  H      -2.535183      2.425945     -0.383922
  C      -3.158477     -0.953582      0.136085
  H      -2.068478      0.537642      1.220473
  H      -4.074031     -0.831600      0.713478
  H      -3.440909     -1.201346     -0.887970
  H      -2.618306     -1.800874      0.555194
  C      -0.899394      0.447151     -1.734671
  C       0.418830      0.282331     -2.257732
  H      -1.709789      0.851836     -2.333363
  C       1.487156      0.152629     -1.378210
  C       2.685729     -0.112932     -2.100580
  S       0.866084      0.118782     -3.891180
  C       2.496936     -0.150653     -3.450193
  H       1.636609      1.161920     -0.552045
  H       3.659477     -0.212541     -1.643453
  H       3.240901     -0.303274     -4.217367
  H      -0.671290     -3.243988     -0.265701
  H      -0.957526     -2.398969      2.308111
  H       1.434066     -1.493644      3.128836
  O       1.729052      2.270659      0.174078
  O       0.543876      1.014013      1.558584
  C       1.116968      2.100409      1.241751
  C       1.064316      3.217647      2.240633
  H       0.996162      4.179268      1.737479
  H       1.991155      3.219078      2.817055
  H       0.236096      3.096943      2.933409
  H       3.216899     -1.869050      1.160688
  H       1.886196     -2.915704     -0.963808
39
Coordinates from ORCA-job reaction4-IEIP_ts_guess_scan_9-12_orca E -1288.403505539367
  Ir      0.605218     -0.727954      0.451186
  C       0.102628     -2.833174      0.364526
  C      -0.057487     -2.363468      1.715936
  C       2.159742     -2.091647      1.112241
  C       1.453677     -2.663443     -0.005374
  C       1.224029     -1.935906      2.164126
  N      -1.061711      0.119942     -0.509465
  C      -2.342335      0.328843      0.185979
  C      -3.138402      1.515197     -0.339477
  H      -3.972508      1.705183      0.334239
  H      -3.569939      1.333811     -1.324782
  H      -2.537833      2.424168     -0.380710
  C      -3.162175     -0.955544      0.137087
  H      -2.072109      0.534662      1.222774
  H      -4.077728     -0.833781      0.714511
  H      -3.444667     -1.202499     -0.887161
  H      -2.622267     -1.803288      0.555590
  C      -0.900178      0.446592     -1.737994
  C       0.422249      0.284825     -2.263416
  H      -1.710171      0.852426     -2.336416
  C       1.487528      0.148737     -1.380754
  C       2.687956     -0.115614     -2.101178
  S       0.874409      0.129751     -3.896379
  C       2.503395     -0.145951     -3.451629
  H       1.638807      1.168974     -0.554411
  H       3.660352     -0.218183     -1.641688
  H       3.249532     -0.296048     -4.217115
  H      -0.673831     -3.246975     -0.262372
  H      -0.956512     -2.402913      2.312054
  H       1.433864     -1.495885      3.128907
  O       1.734376      2.278349      0.170336
  O       0.543827      1.017382      1.558769
  C       1.119747      2.105066      1.240743
  C       1.067386      3.222113      2.239633
  H       0.998275      4.183759      1.736553
  H       1.994637      3.223986      2.815347
  H       0.239645      3.100781      2.932762
  H       3.215253     -1.872727      1.160590
  H       1.882693     -2.920357     -0.962831
39
Coordinates from ORCA-job reaction4-IEIP_ts_guess_scan_9-12_orca E -1288.403590672271
  Ir      0.604044     -0.728327      0.451258
  C       0.098725     -2.833852      0.370835
  C      -0.059902     -2.364252      1.722041
  C       2.156335     -2.093291      1.116374
  C       1.449752     -2.666143      0.000014
  C       1.220784     -1.936069      2.168044
  N      -1.062792      0.118214     -0.508558
  C      -2.343471      0.325906      0.185643
  C      -3.139650      1.511513     -0.341246
  H      -3.975233      1.700891      0.330849
  H      -3.568958      1.329552     -1.327408
  H      -2.539768      2.420957     -0.381524
  C      -3.162023     -0.959270      0.136351
  H      -2.074002      0.532028      1.222564
  H      -4.078021     -0.838394      0.713303
  H      -3.443660     -1.206621     -0.887999
  H      -2.621386     -1.806383      0.555280
  C      -0.900491      0.447505     -1.738369
  C       0.422835      0.289033     -2.267342
  H      -1.711318      0.854290     -2.334784
  C       1.485864      0.142624     -1.383652
  C       2.687470     -0.117117     -2.103863
  S       0.877465      0.147345     -3.900615
  C       2.505787     -0.132487     -3.455013
  H       1.639895      1.173025     -0.558129
  H       3.658863     -0.224976     -1.643429
  H       3.253491     -0.275346     -4.220339
  H      -0.678332     -3.247931     -0.255118
  H      -0.958534     -2.402563      2.318764
  H       1.431238     -1.495086      3.132254
  O       1.740478      2.281596      0.167168
  O       0.544406      1.019064      1.556032
  C       1.123162      2.105789      1.238391
  C       1.073487      3.222085      2.237346
  H       1.004138      4.183979      1.734728
  H       2.001743      3.223088      2.811456
  H       0.246667      3.100687      2.931450
  H       3.212211     -1.876277      1.165039
  H       1.878073     -2.925594     -0.957059
39
Coordinates from ORCA-job reaction4-IEIP_ts_guess_scan_9-12_orca E -1288.403645100022
  Ir      0.603026     -0.729856      0.452225
  C       0.095036     -2.835195      0.379634
  C      -0.063346     -2.364827      1.730232
  C       2.152823     -2.095278      1.124024
  C       1.446573     -2.669884      0.008723
  C       1.216410     -1.935777      2.174793
  N      -1.063376      0.115557     -0.509396
  C      -2.345021      0.321019      0.183379
  C      -3.142350      1.506497     -0.342210
  H      -3.978948      1.693725      0.329219
  H      -3.570323      1.325548     -1.329108
  H      -2.543571      2.416757     -0.380364
  C      -3.162499     -0.964810      0.132171
  H      -2.076648      0.525934      1.220882
  H      -4.079021     -0.845372      0.708619
  H      -3.443086     -1.211334     -0.892649
  H      -2.621374     -1.811760      0.550664
  C      -0.900407      0.449629     -1.738371
  C       0.422466      0.295179     -2.270479
  H      -1.712059      0.858421     -2.332072
  C       1.483292      0.134161     -1.386706
  C       2.686070     -0.117887     -2.107496
  S       0.880808      0.180173     -3.904497
  C       2.506560     -0.115602     -3.459089
  H       1.640863      1.175098     -0.562989
  H       3.656125     -0.235762     -1.646730
  H       3.255215     -0.251463     -4.224767
  H      -0.682076     -3.249923     -0.245805
  H      -0.962256     -2.401075      2.326614
  H       1.426811     -1.492975      3.138201
  O       1.747899      2.282216      0.163602
  O       0.546006      1.021856      1.552094
  C       1.128307      2.105885      1.235167
  C       1.083075      3.222847      2.233056
  H       1.013388      4.184486      1.729984
  H       2.013071      3.223251      2.804361
  H       0.258001      3.102690      2.929425
  H       3.209052     -1.880363      1.173861
  H       1.874854     -2.932597     -0.947462
39
Coordinates from ORCA-job reaction4-IEIP_ts_guess_scan_9-12_orca E -1288.403680781635
  Ir      0.601448     -0.733586      0.454180
  C       0.089466     -2.837510      0.391295
  C      -0.070226     -2.364702      1.740607
  C       2.147230     -2.098962      1.136317
  C       1.442326     -2.676043      0.021832
  C       1.208644     -1.935213      2.185017
  N      -1.063027      0.112026     -0.511163
  C      -2.345973      0.314482      0.180417
  C      -3.144908      1.500190     -0.342276
  H      -3.982042      1.684331      0.329265
  H      -3.572282      1.321261     -1.329802
  H      -2.547425      2.411437     -0.377684
  C      -3.162304     -0.971989      0.126178
  H      -2.078874      0.517340      1.218735
  H      -4.079540     -0.854381      0.701844
  H      -3.441428     -1.216997     -0.899407
  H      -2.620852     -1.819084      0.543854
  C      -0.899887      0.452467     -1.737845
  C       0.420967      0.300500     -2.273010
  H      -1.712572      0.863488     -2.328572
  C       1.479651      0.120866     -1.390199
  C       2.683934     -0.118411     -2.112419
  S       0.881880      0.211743     -3.907678
  C       2.508110     -0.083880     -3.464172
  H       1.641615      1.172822     -0.570246
  H       3.652697     -0.247392     -1.652001
  H       3.258965     -0.201891     -4.230686
  H      -0.687104     -3.252982     -0.234315
  H      -0.970417     -2.397011      2.335228
  H       1.418183     -1.489377      3.147233
  O       1.756515      2.278433      0.157438
  O       0.548651      1.024525      1.546068
  C       1.135353      2.104269      1.229357
  C       1.096748      3.223724      2.224782
  H       1.026020      4.184376      1.719979
  H       2.029601      3.224244      2.791421
  H       0.274810      3.106276      2.925314
  H       3.203895     -1.886870      1.188502
  H       1.871522     -2.943330     -0.932647
39
Coordinates from ORCA-job reaction4-IEIP_ts_guess_scan_9-12_orca E -1288.403694069416
  Ir      0.600674     -0.735591      0.454618
  C       0.088861     -2.838493      0.394265
  C      -0.073873     -2.364015      1.742705
  C       2.145177     -2.099021      1.142698
  C       1.442822     -2.677686      0.027548
  C       1.204137     -1.933713      2.189327
  N      -1.062541      0.109958     -0.512565
  C      -2.345556      0.311278      0.179731
  C      -3.144863      1.497798     -0.340448
  H      -3.981360      1.680608      0.332211
  H      -3.573159      1.320643     -1.327919
  H      -2.547480      2.409169     -0.374688
  C      -3.161935     -0.975050      0.123595
  H      -2.078418      0.512639      1.218350
  H      -4.079344     -0.858028      0.699075
  H      -3.440701     -1.218718     -0.902415
  H      -2.620801     -1.822800      0.540357
  C      -0.899939      0.453868     -1.737511
  C       0.419883      0.303077     -2.272874
  H      -1.712667      0.867240     -2.326666
  C       1.478320      0.115913     -1.391388
  C       2.682998     -0.117583     -2.114493
  S       0.883221      0.234391     -3.907872
  C       2.507088     -0.075402     -3.466102
  H       1.641780      1.169634     -0.573314
  H       3.651108     -0.253712     -1.654797
  H       3.257660     -0.191060     -4.233262
  H      -0.686167     -3.254894     -0.232641
  H      -0.975602     -2.394839      2.335069
  H       1.411677     -1.486167      3.151178
  O       1.759182      2.274628      0.154909
  O       0.548668      1.025172      1.542469
  C       1.137416      2.102954      1.226282
  C       1.101286      3.223873      2.220645
  H       1.029511      4.183907      1.714831
  H       2.035513      3.225083      2.785008
  H       0.281004      3.107577      2.923311
  H       3.201755     -1.887056      1.197128
  H       1.874035     -2.946393     -0.925614
39
Coordinates from ORCA-job reaction4-IEIP_ts_guess_scan_9-12_orca E -1288.403700818908
  Ir      0.600571     -0.736714      0.454681
  C       0.089983     -2.839299      0.393671
  C      -0.075307     -2.363677      1.741607
  C       2.144912     -2.098657      1.145411
  C       1.444620     -2.678119      0.029356
  C       1.202118     -1.932945      2.190531
  N      -1.062589      0.109366     -0.512800
  C      -2.345377      0.310518      0.180375
  C      -3.144069      1.498271     -0.337932
  H      -3.980015      1.680639      0.335546
  H      -3.573069      1.322866     -1.325407
  H      -2.546131      2.409318     -0.371165
  C      -3.162525     -0.975206      0.122346
  H      -2.078006      0.510481      1.219175
  H      -4.080049     -0.858294      0.697675
  H      -3.441159     -1.217359     -0.904058
  H      -2.622193     -1.823950      0.538083
  C      -0.900320      0.454019     -1.737340
  C       0.419246      0.302089     -2.272150
  H      -1.712711      0.868088     -2.326459
  C       1.478244      0.114608     -1.391397
  C       2.682938     -0.117003     -2.114879
  S       0.882406      0.234385     -3.907443
  C       2.506747     -0.072964     -3.466449
  H       1.641885      1.166775     -0.574169
  H       3.651177     -0.253364     -1.655542
  H       3.257314     -0.186739     -4.233897
  H      -0.683683     -3.256476     -0.234403
  H      -0.978097     -2.394317      2.332384
  H       1.407939     -1.484748      3.152438
  O       1.758935      2.272222      0.153422
  O       0.548618      1.024821      1.541446
  C       1.137772      2.102304      1.224757
  C       1.101960      3.223887      2.218623
  H       1.028562      4.183477      1.712185
  H       2.037013      3.226379      2.781590
  H       0.282807      3.107471      2.922583
  H       3.201289     -1.886037      1.201320
  H       1.877615     -2.946926     -0.922974
39
Coordinates from ORCA-job reaction4-IEIP_ts_guess_scan_9-12_orca E -1288.403704012559
  Ir      0.600324     -0.737530      0.454590
  C       0.091306     -2.840076      0.392757
  C      -0.077620     -2.363267      1.740039
  C       2.144075     -2.097797      1.149391
  C       1.446875     -2.678366      0.032021
  C       1.198605     -1.931854      2.192189
  N      -1.062759      0.108885     -0.512612
  C      -2.345283      0.309425      0.181345
  C      -3.143448      1.498494     -0.334825
  H      -3.979113      1.680017      0.339247
  H      -3.572721      1.325181     -1.322546
  H      -2.545087      2.409318     -0.366466
  C      -3.162814     -0.975899      0.120777
  H      -2.077754      0.507649      1.220401
  H      -4.080518     -0.859705      0.695984
  H      -3.441198     -1.216125     -0.906143
  H      -2.622982     -1.825702      0.535046
  C      -0.900883      0.454303     -1.737023
  C       0.418582      0.301603     -2.271767
  H      -1.713027      0.869196     -2.325869
  C       1.478019      0.113201     -1.391749
  C       2.682561     -0.116785     -2.115851
  S       0.881440      0.235720     -3.907440
  C       2.506052     -0.070330     -3.467367
  H       1.642591      1.164245     -0.575266
  H       3.650922     -0.253756     -1.656972
  H       3.256545     -0.182373     -4.235145
  H      -0.680374     -3.258410     -0.236983
  H      -0.981854     -2.394003      2.328618
  H       1.401796     -1.482977      3.154328
  O       1.759759      2.270242      0.151470
  O       0.548682      1.024786      1.540158
  C       1.138823      2.101895      1.222839
  C       1.103552      3.223854      2.216331
  H       1.027659      4.183024      1.709416
  H       2.039887      3.228057      2.777131
  H       0.286084      3.106777      2.922102
  H       3.200169     -1.884380      1.207650
  H       1.882498     -2.947347     -0.919066
39
Coordinates from ORCA-job reaction4-IEIP_ts_guess_scan_9-12_orca E -1288.403706905161
  Ir      0.600274     -0.738132      0.454489
  C       0.093630     -2.841088      0.391586
  C      -0.080196     -2.363304      1.738116
  C       2.143270     -2.096331      1.154864
  C       1.450373     -2.678363      0.035689
  C       1.194071     -1.930671      2.194499
  N      -1.063143      0.108383     -0.512159
  C      -2.345493      0.308088      0.182367
  C      -3.142835      1.498891     -0.331135
  H      -3.978475      1.679277      0.343281
  H      -3.571965      1.328358     -1.319393
  H      -2.543871      2.409396     -0.360368
  C      -3.163632     -0.976662      0.118383
  H      -2.077952      0.503925      1.221848
  H      -4.081508     -0.861515      0.693548
  H      -3.441783     -1.214193     -0.909225
  H      -2.624387     -1.827873      0.530534
  C      -0.901738      0.454519     -1.736553
  C       0.417594      0.301419     -2.271732
  H      -1.713819      0.870172     -2.324912
  C       1.477467      0.111653     -1.392524
  C       2.681688     -0.116944     -2.117548
  S       0.879845      0.237868     -3.907831
  C       2.504613     -0.068071     -3.468951
  H       1.643692      1.162161     -0.576461
  H       3.650240     -0.254695     -1.659306
  H       3.254874     -0.178703     -4.237159
  H      -0.675308     -3.261082     -0.240384
  H      -0.986282     -2.394693      2.323827
  H       1.393548     -1.481114      3.157093
  O       1.761367      2.268710      0.149352
  O       0.549092      1.025038      1.538782
  C       1.140457      2.101650      1.220812
  C       1.105896      3.223839      2.213978
  H       1.026296      4.182570      1.706726
  H       2.044092      3.230498      2.771615
  H       0.290866      3.105423      2.922292
  H       3.198953     -1.881819      1.216447
  H       1.889559     -2.947395     -0.913751
39
Coordinates from ORCA-job reaction4-IEIP_ts_guess_scan_9-12_orca E -1288.403711206262
  Ir      0.600375     -0.738511      0.454247
  C       0.098519     -2.842552      0.388647
  C      -0.085068     -2.363944      1.733925
  C       2.141706     -2.092972      1.165398
  C       1.457497     -2.677513      0.042469
  C       1.184968     -1.928757      2.198762
  N      -1.063714      0.107901     -0.511092
  C      -2.345905      0.305784      0.184126
  C      -3.141932      1.499666     -0.324356
  H      -3.977789      1.677697      0.350417
  H      -3.570474      1.334298     -1.313733
  H      -2.541999      2.409666     -0.348880
  C      -3.164859     -0.978091      0.113803
  H      -2.078484      0.497047      1.224459
  H      -4.082801     -0.865403      0.689373
  H      -3.442964     -1.210381     -0.915015
  H      -2.626118     -1.831812      0.521493
  C      -0.903315      0.454884     -1.735550
  C       0.415586      0.301524     -2.272059
  H      -1.715651      0.871380     -2.322929
  C       1.476185      0.109387     -1.394290
  C       2.679608     -0.117943     -2.121066
  S       0.876280      0.241181     -3.908858
  C       2.501242     -0.065879     -3.472216
  H       1.646003      1.159496     -0.578285
  H       3.648545     -0.257057     -1.664039
  H       3.250855     -0.175153     -4.241249
  H      -0.664943     -3.265591     -0.247885
  H      -0.994792     -2.397174      2.313890
  H       1.376863     -1.478320      3.162482
  O       1.764902      2.266821      0.146143
  O       0.550262      1.025920      1.536563
  C       1.143750      2.101512      1.217718
  C       1.110522      3.224064      2.210342
  H       1.023367      4.182002      1.702688
  H       2.052428      3.235766      2.761571
  H       0.300442      3.102710      2.923732
  H       3.196533     -1.876362      1.233812
  H       1.903740     -2.946100     -0.903818
39
Coordinates from ORCA-job reaction4-IEIP_ts_guess_scan_9-12_orca E -1288.403716448036
  Ir      0.600899     -0.738362      0.454077
  C       0.105756     -2.843985      0.383872
  C      -0.090582     -2.365900      1.727875
  C       2.140160     -2.088142      1.178506
  C       1.467462     -2.675315      0.050416
  C       1.173551     -1.927140      2.203824
  N      -1.064343      0.107604     -0.509580
  C      -2.346493      0.303293      0.186177
  C      -3.140666      1.501067     -0.316053
  H      -3.976958      1.676250      0.358911
  H      -3.568291      1.342201     -1.306882
  H      -2.539366      2.410298     -0.334605
  C      -3.166657     -0.979357      0.108032
  H      -2.079374      0.488661      1.227641
  H      -4.084286     -0.869893      0.684730
  H      -3.445349     -1.204750     -0.922170
  H      -2.628252     -1.836264      0.509529
  C      -0.905353      0.455056     -1.734153
  C       0.412791      0.301760     -2.272671
  H      -1.718412      0.871839     -2.320344
  C       1.474294      0.107367     -1.396595
  C       2.676516     -0.120015     -2.125462
  S       0.871088      0.243349     -3.910213
  C       2.496290     -0.065935     -3.476284
  H       1.648834      1.157366     -0.580001
  H       3.645978     -0.260448     -1.669928
  H       3.244854     -0.174992     -4.246367
  H      -0.650508     -3.270576     -0.258815
  H      -1.005002     -2.402230      2.300230
  H       1.355334     -1.476192      3.169263
  O       1.769237      2.265356      0.143161
  O       0.552189      1.027234      1.534494
  C       1.147691      2.101585      1.214864
  C       1.115960      3.224821      2.206629
  H       1.018548      4.181611      1.698508
  H       2.062686      3.243592      2.749299
  H       0.312570      3.099456      2.926769
  H       3.193773     -1.868774      1.256058
  H       1.922805     -2.942304     -0.892006
39
Coordinates from ORCA-job reaction4-IEIP_ts_guess_scan_9-12_orca E -1288.403721855166
  Ir      0.601717     -0.737574      0.454091
  C       0.113632     -2.844648      0.377606
  C      -0.095487     -2.369127      1.720819
  C       2.138840     -2.083015      1.190777
  C       1.477892     -2.671791      0.057038
  C       1.162335     -1.926776      2.208162
  N      -1.064756      0.107669     -0.507911
  C      -2.346980      0.301361      0.188176
  C      -3.139337      1.502790     -0.308125
  H      -3.976055      1.675389      0.366956
  H      -3.566174      1.350026     -1.300251
  H      -2.536657      2.411191     -0.321178
  C      -3.168328     -0.980102      0.102908
  H      -2.080227      0.481026      1.230729
  H      -4.085097     -0.873947      0.681577
  H      -3.448500     -1.198655     -0.928378
  H      -2.629706     -1.840004      0.497779
  C      -0.907276      0.454915     -1.732652
  C       0.409980      0.301968     -2.273291
  H      -1.721423      0.871076     -2.317841
  C       1.472370      0.106364     -1.398689
  C       2.673261     -0.122896     -2.129304
  S       0.865643      0.242797     -3.911388
  C       2.491097     -0.069064     -3.479841
  H       1.651441      1.156518     -0.581144
  H       3.643232     -0.264167     -1.675086
  H       3.238427     -0.179445     -4.250928
  H      -0.635404     -3.274003     -0.271641
  H      -1.014666     -2.409089      2.285250
  H       1.333776     -1.476184      3.175659
  O       1.773111      2.264812      0.141339
  O       0.554591      1.028722      1.533335
  C       1.151183      2.101980      1.213187
  C       1.120661      3.226353      2.203704
  H       1.012440      4.181696      1.694911
  H       2.072182      3.252894      2.737542
  H       0.324288      3.096969      2.930836
  H       3.191146     -1.861034      1.277878
  H       1.942197     -2.935806     -0.881870
39
Coordinates from ORCA-job reaction4-IEIP_ts_guess_scan_9-12_orca E -1288.403726048815
  Ir      0.602455     -0.736823      0.454364
  C       0.118584     -2.844422      0.372616
  C      -0.097426     -2.372382      1.715994
  C       2.138486     -2.080242      1.196597
  C       1.484119     -2.668757      0.059165
  C       1.156648     -1.928156      2.209847
  N      -1.064876      0.107754     -0.506804
  C      -2.347140      0.300885      0.189410
  C      -3.138232      1.504251     -0.304100
  H      -3.975037      1.676004      0.371081
  H      -3.564935      1.354409     -1.296735
  H      -2.534560      2.412014     -0.314796
  C      -3.169483     -0.979765      0.101040
  H      -2.080544      0.477698      1.232496
  H      -4.085222     -0.875118      0.681590
  H      -3.451405     -1.194687     -0.930539
  H      -2.630532     -1.841271      0.491997
  C      -0.908251      0.454291     -1.731724
  C       0.408529      0.301671     -2.273452
  H      -1.723234      0.869350     -2.316603
  C       1.471473      0.106562     -1.399435
  C       2.671588     -0.125017     -2.130639
  S       0.862693      0.239748     -3.911697
  C       2.488344     -0.073295     -3.481084
  H       1.652405      1.157100     -0.581494
  H       3.641835     -0.266173     -1.676961
  H       3.234874     -0.185476     -4.252684
  H      -0.626557     -3.274388     -0.280684
  H      -1.019328     -2.414643      2.275785
  H       1.322337     -1.478689      3.178870
  O       1.774336      2.265273      0.141133
  O       0.556311      1.029496      1.533579
  C       1.152389      2.102462      1.213174
  C       1.122109      3.228008      2.202486
  H       1.007179      4.182156      1.692879
  H       2.076321      3.259708      2.731176
  H       0.329957      3.096397      2.933817
  H       3.190049     -1.857058      1.289363
  H       1.953110     -2.929685     -0.878290
39
Coordinates from ORCA-job reaction4-IEIP_ts_guess_scan_9-12_orca E -1288.403728837540
  Ir      0.602869     -0.736570      0.454766
  C       0.120550     -2.843975      0.369536
  C      -0.097654     -2.374840      1.713550
  C       2.138610     -2.079668      1.197799
  C       1.486501     -2.667055      0.058559
  C       1.155046     -1.930217      2.209899
  N      -1.064734      0.107727     -0.506222
  C      -2.346906      0.301282      0.190126
  C      -3.137332      1.505257     -0.302903
  H      -3.973927      1.677332      0.372463
  H      -3.564387      1.355956     -1.295472
  H      -2.533102      2.412645     -0.313538
  C      -3.169918     -0.978940      0.101527
  H      -2.080204      0.477490      1.233286
  H      -4.084839     -0.874405      0.683377
  H      -3.453242     -1.192849     -0.929876
  H      -2.630752     -1.840977      0.491036
  C      -0.908428      0.453549     -1.731297
  C       0.408230      0.300934     -2.273197
  H      -1.723773      0.867773     -2.316294
  C       1.471421      0.106939     -1.399195
  C       2.671315     -0.125982     -2.130291
  S       0.861986      0.236610     -3.911393
  C       2.487760     -0.076245     -3.480768
  H       1.652100      1.158008     -0.581743
  H       3.641656     -0.266601     -1.676647
  H       3.233972     -0.189518     -4.252517
  H      -0.623379     -3.273249     -0.285604
  H      -1.020657     -2.417872      2.271461
  H       1.318822     -1.481985      3.179819
  O       1.773603      2.265961      0.141292
  O       0.557197      1.029578      1.534304
  C       1.152013      2.102830      1.213585
  C       1.121332      3.229271      2.201978
  H       1.003109      4.182587      1.691572
  H       2.076623      3.263745      2.728514
  H       0.331070      3.096757      2.935207
  H       3.189949     -1.856402      1.292880
  H       1.956868     -2.925690     -0.878845
39
Coordinates from ORCA-job reaction4-IEIP_ts_guess_scan_9-12_orca E -1288.403730877668
  Ir      0.603096     -0.736746      0.455228
  C       0.121262     -2.843770      0.367653
  C      -0.097465     -2.376624      1.712292
  C       2.138860     -2.080011      1.197604
  C       1.487365     -2.666329      0.057471
  C       1.154859     -1.932130      2.209611
  N      -1.064519      0.107618     -0.505824
  C      -2.346525      0.301874      0.190697
  C      -3.136495      1.506052     -0.302554
  H      -3.972819      1.678747      0.373003
  H      -3.563958      1.356601     -1.294926
  H      -2.531887      2.413179     -0.313720
  C      -3.170088     -0.978033      0.102589
  H      -2.079624      0.478202      1.233780
  H      -4.084492     -0.873125      0.685186
  H      -3.454321     -1.191805     -0.928588
  H      -2.630949     -1.840285      0.491661
  C      -0.908333      0.452890     -1.731040
  C       0.408338      0.299984     -2.272750
  H      -1.723725      0.866724     -2.316246
  C       1.471654      0.106999     -1.398623
  C       2.671571     -0.126301     -2.129514
  S       0.862131      0.234293     -3.910899
  C       2.487997     -0.077757     -3.480041
  H       1.651341      1.158678     -0.582251
  H       3.641956     -0.266348     -1.675787
  H       3.234123     -0.191384     -4.251823
  H      -0.622395     -3.272164     -0.288379
  H      -1.020946     -2.419708      2.269407
  H       1.318181     -1.484930      3.180082
  O       1.772166      2.266523      0.141063
  O       0.557720      1.029333      1.534906
  C       1.151192      2.103090      1.213665
  C       1.119906      3.230096      2.201439
  H       0.999472      4.182801      1.690416
  H       2.075782      3.266472      2.726770
  H       0.330786      3.096920      2.935786
  H       3.190175     -1.857030      1.293637
  H       1.957979     -2.923405     -0.880238
