39
Coordinates from ORCA-job reaction4-IEIP_ts_guess_scan_3-4_orca E -1288.397988848433
  Ir      0.586914     -0.719192      0.439535
  C       0.033570     -2.800787      0.325383
  C       0.131066     -2.354370      1.694286
  C       2.204080     -2.130584      0.718672
  C       1.291065     -2.636494     -0.281766
  C       1.501206     -1.996588      1.928510
  N      -1.051380      0.179230     -0.523783
  C      -2.319170      0.515440      0.142310
  C      -3.143809      1.550101     -0.605752
  H      -3.974014      1.861515      0.026645
  H      -3.583391      1.159801     -1.525167
  H      -2.565470      2.443822     -0.842380
  C      -3.115421     -0.757957      0.399408
  H      -2.021355      0.939607      1.102731
  H      -4.026321     -0.514186      0.943982
  H      -3.405670     -1.239759     -0.535236
  H      -2.560996     -1.474420      1.003863
  C      -0.841402      0.384498     -1.763848
  C       0.514374      0.146781     -2.212033
  H      -1.610986      0.750303     -2.437579
  C       1.610979      0.514444     -1.441261
  C       2.820006      0.084103     -2.061391
  S       0.950575     -0.658281     -3.653358
  C       2.616268     -0.552195     -3.245136
  H       1.524424      1.386178     -0.660828
  H       3.803358      0.289517     -1.663820
  H       3.358044     -0.948818     -3.921915
  H      -0.862069     -3.161201     -0.159969
  H      -0.649181     -2.390381      2.440443
  H       1.899151     -1.606651      2.854365
  O       1.288614      2.471885      0.259754
  O       0.540844      0.902950      1.659188
  C       0.899877      2.110742      1.366180
  C       0.838815      3.072027      2.520599
  H       0.789399      4.097130      2.163652
  H       1.746400      2.969573      3.118736
  H      -0.004045      2.864465      3.176729
  H       3.246871     -1.897861      0.561483
  H       1.538152     -2.855199     -1.310493
39
Coordinates from ORCA-job reaction4-IEIP_ts_guess_scan_3-4_orca E -1288.396802470700
  Ir      0.590701     -0.706786      0.431263
  C       0.051704     -2.792762      0.301681
  C       0.139472     -2.356323      1.674234
  C       2.215559     -2.110473      0.710436
  C       1.311017     -2.615849     -0.297904
  C       1.505543     -1.989472      1.917459
  N      -1.058630      0.185013     -0.529576
  C      -2.323105      0.525184      0.139608
  C      -3.153462      1.549384     -0.616424
  H      -3.981526      1.866278      0.016057
  H      -3.596149      1.147562     -1.529392
  H      -2.578107      2.441524     -0.865968
  C      -3.114244     -0.747555      0.414710
  H      -2.021237      0.960555      1.093742
  H      -4.022795     -0.500459      0.961696
  H      -3.408257     -1.240175     -0.513078
  H      -2.554247     -1.455863      1.023696
  C      -0.856726      0.374650     -1.774501
  C       0.498876      0.134825     -2.221550
  H      -1.630738      0.726802     -2.450425
  C       1.591199      0.532287     -1.458621
  C       2.802632      0.081800     -2.060887
  S       0.940334     -0.719049     -3.632410
  C       2.603891     -0.599961     -3.219669
  H       1.504348      1.461978     -0.737711
  H       3.784729      0.309160     -1.672353
  H       3.348748     -1.017490     -3.880191
  H      -0.838879     -3.156191     -0.190640
  H      -0.643873     -2.404013      2.416412
  H       1.896143     -1.603362      2.848020
  O       1.397275      2.441567      0.316224
  O       0.520066      0.903460      1.667218
  C       0.930886      2.098764      1.398932
  C       0.834728      3.063858      2.547586
  H       0.839619      4.089369      2.188329
  H       1.702361      2.933005      3.197216
  H      -0.051018      2.885128      3.153675
  H       3.257666     -1.870444      0.560422
  H       1.564865     -2.826737     -1.326578
39
Coordinates from ORCA-job reaction4-IEIP_ts_guess_scan_3-4_orca E -1288.398064445909
  Ir      0.593390     -0.722513      0.442191
  C       0.036059     -2.805336      0.329923
  C       0.128588     -2.359904      1.699204
  C       2.206067     -2.138125      0.731563
  C       1.296519     -2.643518     -0.272207
  C       1.497711     -2.002239      1.938239
  N      -1.047766      0.179558     -0.522674
  C      -2.313887      0.516185      0.144438
  C      -3.135868      1.553193     -0.603242
  H      -3.966111      1.865717      0.028550
  H      -3.575059      1.164599     -1.523611
  H      -2.555443      2.445922     -0.838559
  C      -3.111122     -0.756944      0.399171
  H      -2.015035      0.938049      1.105562
  H      -4.021350     -0.513455      0.944978
  H      -3.402509     -1.236352     -0.536335
  H      -2.556602     -1.475179      1.001543
  C      -0.839973      0.391975     -1.764264
  C       0.515020      0.157455     -2.220893
  H      -1.611569      0.763646     -2.432450
  C       1.614528      0.506403     -1.443280
  C       2.819623      0.074603     -2.072363
  S       0.944221     -0.637413     -3.669520
  C       2.610662     -0.548698     -3.261321
  H       1.543991      1.402107     -0.675492
  H       3.805214      0.273601     -1.677162
  H       3.349110     -0.940919     -3.944138
  H      -0.857940     -3.165024     -0.158935
  H      -0.654314     -2.395908      2.442465
  H       1.892301     -1.612527      2.865603
  O       1.261680      2.466762      0.256521
  O       0.536270      0.900566      1.666268
  C       0.886858      2.108358      1.369472
  C       0.827814      3.074650      2.519483
  H       0.767598      4.097717      2.158254
  H       1.740920      2.981997      3.110694
  H      -0.008146      2.863489      3.183063
  H       3.250136     -1.908486      0.579300
  H       1.547784     -2.864824     -1.299296
39
Coordinates from ORCA-job reaction4-IEIP_ts_guess_scan_3-4_orca E -1288.396599701892
  Ir      0.577707     -0.726637      0.451716
  C       0.010893     -2.807596      0.377643
  C       0.103540     -2.337043      1.738111
  C       2.183238     -2.143030      0.769447
  C       1.272768     -2.663212     -0.225605
  C       1.473707     -1.981358      1.972279
  N      -1.057115      0.158986     -0.532720
  C      -2.327950      0.490508      0.129371
  C      -3.154761      1.521558     -0.621347
  H      -3.988162      1.829907      0.008356
  H      -3.589993      1.129091     -1.541913
  H      -2.579274      2.417472     -0.856636
  C      -3.119222     -0.786358      0.384565
  H      -2.034643      0.915802      1.090633
  H      -4.032324     -0.546772      0.927337
  H      -3.405313     -1.269251     -0.550782
  H      -2.562501     -1.500304      0.989856
  C      -0.850432      0.371401     -1.773854
  C       0.505583      0.160029     -2.237130
  H      -1.624839      0.744354     -2.437811
  C       1.601236      0.482751     -1.445053
  C       2.813360      0.119007     -2.102267
  S       0.944052     -0.545502     -3.728092
  C       2.611751     -0.431801     -3.328161
  H       1.504569      1.299848     -0.602876
  H       3.796019      0.308198     -1.694970
  H       3.354722     -0.767218     -4.036012
  H      -0.884177     -3.171983     -0.105760
  H      -0.680700     -2.354947      2.480604
  H       1.868717     -1.575885      2.892687
  O       1.491996      2.423424      0.302253
  O       0.529672      0.919967      1.645401
  C       0.980942      2.100597      1.371824
  C       0.882488      3.079176      2.508520
  H       0.927372      4.100531      2.140380
  H       1.727961      2.929294      3.182798
  H      -0.024346      2.932184      3.091582
  H       3.228625     -1.921025      0.614403
  H       1.524203     -2.904971     -1.248036
39
Coordinates from ORCA-job reaction4-IEIP_ts_guess_scan_3-4_orca E -1288.398147696287
  Ir      0.586368     -0.717444      0.445647
  C       0.031212     -2.800614      0.343469
  C       0.119857     -2.348183      1.710356
  C       2.199429     -2.129268      0.746265
  C       1.292915     -2.640748     -0.256892
  C       1.487734     -1.987650      1.950488
  N      -1.050802      0.175473     -0.524898
  C      -2.321105      0.504071      0.139640
  C      -3.147003      1.540465     -0.604757
  H      -3.979918      1.845970      0.026970
  H      -3.582867      1.153970     -1.527550
  H      -2.570696      2.437191     -0.834913
  C      -3.113920     -0.773317      0.387344
  H      -2.027041      0.923353      1.103368
  H      -4.026678     -0.535831      0.931629
  H      -3.400724     -1.250294     -0.550819
  H      -2.558043     -1.491503      0.988325
  C      -0.842142      0.391861     -1.765410
  C       0.511466      0.162658     -2.227238
  H      -1.615617      0.762153     -2.431941
  C       1.613423      0.495840     -1.446722
  C       2.816822      0.073767     -2.084532
  S       0.937453     -0.598094     -3.694435
  C       2.604819     -0.522495     -3.286859
  H       1.546802      1.372856     -0.658040
  H       3.803153      0.258435     -1.684163
  H       3.341219     -0.903987     -3.977928
  H      -0.861313     -3.163478     -0.145722
  H      -0.664892     -2.380743      2.451788
  H       1.879635     -1.592411      2.876645
  O       1.352967      2.453891      0.277711
  O       0.525743      0.911590      1.659662
  C       0.922086      2.108031      1.374624
  C       0.848537      3.077716      2.520797
  H       0.832938      4.101485      2.157009
  H       1.735251      2.958603      3.146435
  H      -0.018154      2.892762      3.152034
  H       3.243756     -1.899591      0.595545
  H       1.546700     -2.867302     -1.282193
39
Coordinates from ORCA-job reaction4-IEIP_ts_guess_scan_3-4_orca E -1288.398161085251
  Ir      0.590478     -0.722474      0.446569
  C       0.029965     -2.804492      0.345211
  C       0.118099     -2.351993      1.711980
  C       2.199464     -2.138769      0.750266
  C       1.292734     -2.648204     -0.253833
  C       1.486543     -1.994564      1.953439
  N      -1.047811      0.174411     -0.525870
  C      -2.316984      0.505868      0.139469
  C      -3.140241      1.545309     -0.603596
  H      -3.971946      1.852600      0.028853
  H      -3.577703      1.161052     -1.526559
  H      -2.561497      2.440611     -0.833149
  C      -3.113511     -0.769437      0.386063
  H      -2.021482      0.923558      1.103460
  H      -4.025560     -0.529696      0.930519
  H      -3.401671     -1.244780     -0.552503
  H      -2.559771     -1.489753      0.986401
  C      -0.842141      0.386075     -1.767793
  C       0.510968      0.159435     -2.228806
  H      -1.617051      0.753228     -2.434478
  C       1.609181      0.497531     -1.445993
  C       2.815743      0.083380     -2.082690
  S       0.941342     -0.613554     -3.687954
  C       2.608455     -0.515975     -3.284565
  H       1.537414      1.385650     -0.668378
  H       3.800615      0.278524     -1.683717
  H       3.347880     -0.890830     -3.976029
  H      -0.862862     -3.165234     -0.145010
  H      -0.667602     -2.382404      2.452491
  H       1.878378     -1.599966      2.879900
  O       1.311212      2.463155      0.264173
  O       0.532249      0.908148      1.661161
  C       0.906744      2.109759      1.369028
  C       0.850006      3.076030      2.518916
  H       0.814593      4.100417      2.158291
  H       1.752643      2.965151      3.122965
  H       0.000693      2.880010      3.170122
  H       3.244714     -1.912391      0.601044
  H       1.547091     -2.876198     -1.278657
39
Coordinates from ORCA-job reaction4-IEIP_ts_guess_scan_3-4_orca E -1288.398181005504
  Ir      0.590677     -0.721873      0.446691
  C       0.031448     -2.803839      0.344336
  C       0.118694     -2.351970      1.711269
  C       2.200389     -2.137066      0.750434
  C       1.294392     -2.646582     -0.254227
  C       1.486748     -1.993744      1.953361
  N      -1.047134      0.173472     -0.525381
  C      -2.316056      0.504596      0.140778
  C      -3.138388      1.546569     -0.599786
  H      -3.969418      1.853550      0.033710
  H      -3.576812      1.164863     -1.523344
  H      -2.558615      2.441616     -0.827722
  C      -3.113988     -0.770385      0.384684
  H      -2.020146      0.919972      1.105629
  H      -4.025836     -0.530801      0.929545
  H      -3.402543     -1.243491     -0.554891
  H      -2.561099     -1.492561      0.983570
  C      -0.842611      0.385315     -1.767412
  C       0.510158      0.160683     -2.230201
  H      -1.618479      0.752382     -2.433041
  C       1.608585      0.496930     -1.447073
  C       2.815063      0.080122     -2.081978
  S       0.941264     -0.600149     -3.695272
  C       2.607472     -0.519136     -3.283964
  H       1.536862      1.382956     -0.666938
  H       3.799826      0.268837     -1.679680
  H       3.346554     -0.898610     -3.973285
  H      -0.860965     -3.164774     -0.146510
  H      -0.667382     -2.382940      2.451345
  H       1.877939     -1.599199      2.880118
  O       1.313593      2.462748      0.263673
  O       0.532657      0.908332      1.660577
  C       0.908972      2.109270      1.368565
  C       0.847122      3.077349      2.516690
  H       0.810444      4.101106      2.154411
  H       1.748511      2.969268      3.123107
  H      -0.003391      2.880549      3.166120
  H       3.245623     -1.910139      0.601883
  H       1.549243     -2.874038     -1.279049
39
Coordinates from ORCA-job reaction4-IEIP_ts_guess_scan_3-4_orca E -1288.398190149773
  Ir      0.589240     -0.720740      0.449159
  C       0.032307     -2.802867      0.344758
  C       0.117224     -2.351867      1.712065
  C       2.200051     -2.134146      0.754083
  C       1.295941     -2.643954     -0.252087
  C       1.484522     -1.992320      1.956158
  N      -1.046879      0.172320     -0.523859
  C      -2.316325      0.502696      0.141808
  C      -3.137104      1.547126     -0.597086
  H      -3.968087      1.853784      0.036640
  H      -3.575592      1.167925     -1.521644
  H      -2.556084      2.441899     -0.822907
  C      -3.115476     -0.772249      0.382013
  H      -2.021147      0.915683      1.107878
  H      -4.027749     -0.533263      0.926432
  H      -3.403320     -1.243041     -0.558944
  H      -2.563740     -1.496228      0.979834
  C      -0.842407      0.384004     -1.765963
  C       0.509838      0.158796     -2.230513
  H      -1.619072      0.749868     -2.431332
  C       1.609622      0.491617     -1.447409
  C       2.815356      0.077412     -2.085304
  S       0.939340     -0.597398     -3.698334
  C       2.606300     -0.514758     -3.290587
  H       1.538770      1.375231     -0.664122
  H       3.800594      0.264153     -1.683303
  H       3.344490     -0.890049     -3.983151
  H      -0.859074     -3.164278     -0.147622
  H      -0.669918     -2.383832      2.450953
  H       1.874044     -1.597854      2.883656
  O       1.322950      2.457172      0.265750
  O       0.530260      0.909012      1.662028
  C       0.911311      2.108060      1.369464
  C       0.847262      3.079228      2.514959
  H       0.815176      4.102189      2.150037
  H       1.745719      2.970014      3.125531
  H      -0.006610      2.886523      3.161199
  H       3.245298     -1.906163      0.607218
  H       1.552337     -2.870513     -1.276720
39
Coordinates from ORCA-job reaction4-IEIP_ts_guess_scan_3-4_orca E -1288.398198997386
  Ir      0.589721     -0.721153      0.451225
  C       0.032751     -2.803207      0.346236
  C       0.116067     -2.352361      1.713662
  C       2.200150     -2.134716      0.758152
  C       1.297120     -2.644407     -0.249119
  C       1.483090     -1.992821      1.959341
  N      -1.046434      0.171188     -0.523366
  C      -2.316323      0.500368      0.142232
  C      -3.135076      1.548675     -0.593513
  H      -3.965842      1.854531      0.040896
  H      -3.573851      1.173539     -1.519586
  H      -2.552351      2.443170     -0.815986
  C      -3.117050     -0.774681      0.376564
  H      -2.021901      0.909378      1.110193
  H      -4.029732     -0.536900      0.920824
  H      -3.404194     -1.241564     -0.566548
  H      -2.566714     -1.501573      0.972174
  C      -0.843128      0.382351     -1.765885
  C       0.508553      0.158640     -2.231929
  H      -1.621150      0.746368     -2.430694
  C       1.608166      0.489288     -1.447606
  C       2.814150      0.077508     -2.086226
  S       0.938610     -0.593802     -3.701343
  C       2.605398     -0.511420     -3.293265
  H       1.536745      1.373559     -0.664488
  H       3.799258      0.263457     -1.683583
  H       3.343761     -0.884317     -3.986934
  H      -0.858033     -3.164480     -0.147344
  H      -0.672039     -2.384138      2.451527
  H       1.871562     -1.598406      2.887305
  O       1.321345      2.456934      0.263811
  O       0.531795      0.910201      1.663396
  C       0.911333      2.109056      1.368618
  C       0.849683      3.081740      2.512946
  H       0.815693      4.104182      2.146773
  H       1.750030      2.974100      3.121021
  H      -0.002120      2.889131      3.161931
  H       3.245690     -1.907139      0.612774
  H       1.554637     -2.871088     -1.273444
39
Coordinates from ORCA-job reaction4-IEIP_ts_guess_scan_3-4_orca E -1288.398211749090
  Ir      0.590817     -0.721729      0.455604
  C       0.034847     -2.803723      0.347704
  C       0.113622     -2.353872      1.715672
  C       2.200857     -2.134817      0.766968
  C       1.301031     -2.644061     -0.243513
  C       1.479716     -1.993871      1.965885
  N      -1.044615      0.168447     -0.521581
  C      -2.314944      0.495821      0.144487
  C      -3.128374      1.554104     -0.583056
  H      -3.957845      1.858908      0.053583
  H      -3.568880      1.189105     -1.512327
  H      -2.540786      2.447218     -0.798016
  C      -3.120223     -0.778813      0.365131
  H      -2.021463      0.894924      1.116832
  H      -4.033366     -0.543367      0.909646
  H      -3.406592     -1.236016     -0.582933
  H      -2.573300     -1.513046      0.954907
  C      -0.844397      0.377472     -1.765133
  C       0.505870      0.156911     -2.234526
  H      -1.625518      0.737419     -2.428550
  C       1.605381      0.483805     -1.448420
  C       2.811639      0.076628     -2.088544
  S       0.936670     -0.588293     -3.707072
  C       2.603119     -0.506524     -3.298714
  H       1.532927      1.369849     -0.666082
  H       3.796637      0.261156     -1.685032
  H       3.341608     -0.875160     -3.994532
  H      -0.854108     -3.164903     -0.149237
  H      -0.677053     -2.385968      2.450769
  H       1.865144     -1.599909      2.895317
  O       1.316014      2.455984      0.258632
  O       0.534599      0.911561      1.665573
  C       0.911208      2.109968      1.366170
  C       0.851036      3.086552      2.507165
  H       0.810554      4.107499      2.137520
  H       1.755210      2.985123      3.110621
  H       0.003667      2.892394      3.161449
  H       3.246993     -1.907503      0.625563
  H       1.561666     -2.870084     -1.267193
39
Coordinates from ORCA-job reaction4-IEIP_ts_guess_scan_3-4_orca E -1288.398213124111
  Ir      0.590738     -0.721105      0.456930
  C       0.036424     -2.803548      0.347883
  C       0.112903     -2.353744      1.716028
  C       2.201389     -2.133040      0.770411
  C       1.303298     -2.642770     -0.241411
  C       1.478401     -1.992847      1.968309
  N      -1.044721      0.167393     -0.520898
  C      -2.315424      0.493489      0.145213
  C      -3.126709      1.555762     -0.578949
  H      -3.955891      1.859883      0.058400
  H      -3.567536      1.194906     -1.509673
  H      -2.537197      2.448390     -0.790568
  C      -3.122137     -0.781316      0.359676
  H      -2.022686      0.888265      1.119531
  H      -4.035604     -0.547443      0.904342
  H      -3.407932     -1.234276     -0.590591
  H      -2.576295     -1.518533      0.946739
  C      -0.845382      0.375978     -1.764701
  C       0.504582      0.156592     -2.235058
  H      -1.627483      0.734726     -2.427636
  C       1.604384      0.482441     -1.448840
  C       2.810405      0.075448     -2.089269
  S       0.935264     -0.585860     -3.709020
  C       2.601540     -0.506470     -3.300048
  H       1.532307      1.368488     -0.666204
  H       3.795530      0.258846     -1.685555
  H       3.339812     -0.874985     -3.996165
  H      -0.851471     -3.165409     -0.150447
  H      -0.678884     -2.386392      2.449906
  H       1.862222     -1.598801      2.898371
  O       1.316233      2.455804      0.257318
  O       0.534251      0.912970      1.665682
  C       0.910154      2.111247      1.364855
  C       0.853217      3.088224      2.505659
  H       0.812707      4.109055      2.135698
  H       1.758693      2.986425      3.107118
  H       0.007168      2.894884      3.161859
  H       3.247621     -1.905160      0.630645
  H       1.565480     -2.868327     -1.264802
39
Coordinates from ORCA-job reaction4-IEIP_ts_guess_scan_3-4_orca E -1288.398214053068
  Ir      0.590913     -0.720897      0.457103
  C       0.037201     -2.803679      0.347901
  C       0.112798     -2.353530      1.716034
  C       2.201767     -2.132441      0.771639
  C       1.304330     -2.642548     -0.240592
  C       1.478097     -1.992368      1.969124
  N      -1.044946      0.167143     -0.520443
  C      -2.315792      0.492513      0.145776
  C      -3.125963      1.556818     -0.576637
  H      -3.955090      1.860521      0.060980
  H      -3.566777      1.198041     -1.508165
  H      -2.535472      2.449220     -0.786446
  C      -3.123129     -0.782463      0.356978
  H      -2.023417      0.884941      1.121137
  H      -4.036679     -0.549597      0.901943
  H      -3.408768     -1.233089     -0.594444
  H      -2.577618     -1.521249      0.942382
  C      -0.845852      0.375825     -1.764282
  C       0.504093      0.156482     -2.234804
  H      -1.628150      0.734546     -2.427018
  C       1.604279      0.482272     -1.449054
  C       2.809922      0.074855     -2.089946
  S       0.934100     -0.586561     -3.708766
  C       2.600493     -0.507180     -3.300565
  H       1.532942      1.368179     -0.666273
  H       3.795283      0.258316     -1.686826
  H       3.338459     -0.875900     -3.996899
  H      -0.850261     -3.166004     -0.150856
  H      -0.679407     -2.386314      2.449460
  H       1.861286     -1.598197      2.899393
  O       1.318707      2.455800      0.257318
  O       0.534464      0.913745      1.665253
  C       0.911906      2.111669      1.364665
  C       0.853209      3.089123      2.504961
  H       0.812507      4.109755      2.134448
  H       1.758176      2.988172      3.107320
  H       0.006614      2.895619      3.160398
  H       3.248026     -1.904359      0.632403
  H       1.567118     -2.867990     -1.263859
