39
Generated by autodE on: 2023-08-13. E = -1288.398603 Ha
Ir    0.59331  -0.71865   0.45267
C     0.04225  -2.80290   0.34357
C     0.11696  -2.35106   1.71148
C     2.20582  -2.12827   0.76779
C     1.30925  -2.64046  -0.24421
C     1.48186  -1.98865   1.96509
N    -1.04534   0.16904  -0.52030
C    -2.31519   0.49468   0.14745
C    -3.12312   1.56291  -0.57157
H    -3.95124   1.86702   0.06715
H    -3.56514   1.20765  -1.50387
H    -2.53015   2.45416  -0.77916
C    -3.12394  -0.78016   0.35431
H    -2.02179   0.88289   1.12415
H    -4.03636  -0.54866   0.90175
H    -3.41148  -1.22640  -0.59860
H    -2.57805  -1.52204   0.93549
C    -0.84696   0.37637  -1.76416
C     0.50337   0.15255  -2.23313
H    -1.62833   0.73629  -2.42735
C     1.60511   0.48676  -1.45290
C     2.80976   0.07183  -2.09130
S     0.93097  -0.60902  -3.69840
C     2.59821  -0.52495  -3.29408
H     1.53501   1.37016  -0.67699
H     3.79575   0.26061  -1.69221
H     3.33494  -0.90242  -3.98701
H    -0.84449  -3.16718  -0.15499
H    -0.67548  -2.38410   2.44468
H     1.86420  -1.59343   2.89526
O     1.31002   2.46402   0.25902
O     0.53505   0.91313   1.66273
C     0.90706   2.11462   1.36505
C     0.84454   3.08633   2.51037
H     0.79980   4.10848   2.14444
H     1.74992   2.98636   3.11225
H    -0.00125   2.88673   3.16502
H     3.25183  -1.89907   0.62855
H     1.57267  -2.86599  -1.26730
