39
Coordinates from ORCA-job reaction4-IEIP_ts_guess_scan_5-12_orca E -1288.398064216800
  Ir      0.597282     -0.730258      0.483848
  C       0.081577     -2.822402      0.347185
  C       0.009962     -2.368017      1.713117
  C       2.186392     -2.115926      0.985909
  C       1.403297     -2.647294     -0.105480
  C       1.332037     -1.978079      2.098333
  N      -1.043535      0.132314     -0.501227
  C      -2.322626      0.398762      0.179275
  C      -3.098155      1.564358     -0.416684
  H      -3.928994      1.809796      0.243429
  H      -3.533465      1.331742     -1.389421
  H      -2.481691      2.458423     -0.512037
  C      -3.159126     -0.875108      0.208799
  H      -2.047797      0.660268      1.202129
  H      -4.072408     -0.704194      0.777051
  H      -3.445689     -1.182265     -0.797879
  H      -2.630296     -1.701090      0.682076
  C      -0.871414      0.376989     -1.743369
  C       0.460669      0.198550     -2.252684
  H      -1.679006      0.733581     -2.376512
  C       1.562616      0.337831     -1.418506
  C       2.756533      0.005062     -2.117091
  S       0.875865     -0.274128     -3.838135
  C       2.535931     -0.333361     -3.418319
  H       1.563373      1.285379     -0.586266
  H       3.745856      0.070862     -1.688089
  H       3.267623     -0.594396     -4.168053
  H      -0.740853     -3.207477     -0.238228
  H      -0.851973     -2.410848      2.362354
  H       1.608665     -1.568398      3.059517
  O       1.494549      2.362559      0.188362
  O       0.550680      0.963235      1.631405
  C       1.006024      2.109515      1.295646
  C       0.956259      3.170644      2.355558
  H       0.894240      4.159796      1.909577
  H       1.878461      3.129341      2.938494
  H       0.126851      3.014732      3.041081
  H       3.241405     -1.888945      0.961889
  H       1.770252     -2.872360     -1.096314
39
Coordinates from ORCA-job reaction4-IEIP_ts_guess_scan_5-12_orca E -1288.398214857170
  Ir      0.600054     -0.732028      0.485065
  C       0.079410     -2.824956      0.353991
  C       0.006878     -2.368987      1.719015
  C       2.184554     -2.120972      0.993835
  C       1.402007     -2.653463     -0.097236
  C       1.328561     -1.979517      2.104759
  N      -1.043211      0.131327     -0.503113
  C      -2.321531      0.397325      0.177683
  C      -3.097874      1.561053     -0.420727
  H      -3.929519      1.806687      0.238267
  H      -3.531912      1.326182     -1.393520
  H      -2.482318      2.455644     -0.517130
  C      -3.156229     -0.877610      0.209329
  H      -2.046332      0.660458      1.200033
  H      -4.069537     -0.707064      0.777618
  H      -3.442711     -1.186676     -0.796789
  H      -2.625974     -1.702061      0.683758
  C      -0.873147      0.378644     -1.747602
  C       0.459432      0.207001     -2.262002
  H      -1.682322      0.738243     -2.377016
  C       1.558766      0.332486     -1.422634
  C       2.753318      0.003033     -2.122593
  S       0.875945     -0.252739     -3.850655
  C       2.534969     -0.320830     -3.427786
  H       1.562552      1.288177     -0.586714
  H       3.741975      0.062260     -1.691081
  H       3.267724     -0.575847     -4.178452
  H      -0.742838     -3.209996     -0.231722
  H      -0.855764     -2.409927      2.367314
  H       1.604514     -1.568655      3.065614
  O       1.498554      2.366106      0.187286
  O       0.550862      0.964692      1.633242
  C       1.008872      2.110941      1.296930
  C       0.960046      3.171936      2.356731
  H       0.898772      4.161315      1.911046
  H       1.882231      3.129727      2.939596
  H       0.130470      3.016311      3.042026
  H       3.240151     -1.896737      0.971185
  H       1.769971     -2.882294     -1.086812
39
Coordinates from ORCA-job reaction4-IEIP_ts_guess_scan_5-12_orca E -1288.398304763677
  Ir      0.598523     -0.733026      0.487422
  C       0.072026     -2.825994      0.366352
  C      -0.002297     -2.366645      1.729453
  C       2.177057     -2.124100      1.006783
  C       1.395881     -2.659408     -0.083303
  C       1.318298     -1.976799      2.115387
  N      -1.040385      0.126945     -0.503341
  C      -2.319385      0.391046      0.176612
  C      -3.097522      1.554141     -0.420862
  H      -3.929857      1.797966      0.237953
  H      -3.530815      1.319338     -1.393969
  H      -2.483355      2.449798     -0.516264
  C      -3.152734     -0.884845      0.207809
  H      -2.044688      0.653585      1.199282
  H      -4.066498     -0.715531      0.775804
  H      -3.438425     -1.194091     -0.798461
  H      -2.621533     -1.708511      0.682373
  C      -0.870367      0.379866     -1.748241
  C       0.461540      0.213550     -2.269625
  H      -1.680861      0.743603     -2.373185
  C       1.560302      0.317393     -1.426535
  C       2.754509      0.001077     -2.133875
  S       0.877078     -0.211091     -3.867607
  C       2.535830     -0.293848     -3.445735
  H       1.569022      1.283325     -0.586501
  H       3.743374      0.049208     -1.701361
  H       3.268304     -0.533672     -4.201595
  H      -0.749800     -3.211534     -0.219589
  H      -0.866145     -2.404094      2.376216
  H       1.592953     -1.562814      3.075265
  O       1.511369      2.363106      0.185412
  O       0.546787      0.966786      1.631210
  C       1.013651      2.109190      1.294955
  C       0.966672      3.172532      2.351621
  H       0.912889      4.161480      1.903975
  H       1.886157      3.126110      2.938432
  H       0.133182      3.022430      3.033271
  H       3.233362     -1.903192      0.986132
  H       1.765269     -2.894089     -1.070927
39
Coordinates from ORCA-job reaction4-IEIP_ts_guess_scan_5-12_orca E -1288.398339642964
  Ir      0.599631     -0.736579      0.491036
  C       0.069050     -2.828981      0.378689
  C      -0.006348     -2.365510      1.740024
  C       2.174551     -2.129152      1.018959
  C       1.393950     -2.666796     -0.070191
  C       1.314055     -1.975982      2.125651
  N      -1.039390      0.123411     -0.504633
  C      -2.320007      0.384922      0.174170
  C      -3.097683      1.550460     -0.419192
  H      -3.930701      1.791373      0.239800
  H      -3.530107      1.319723     -1.393652
  H      -2.483586      2.446638     -0.510168
  C      -3.154533     -0.890438      0.199139
  H      -2.047231      0.643403      1.198401
  H      -4.069522     -0.722280      0.765511
  H      -3.438088     -1.196010     -0.808859
  H      -2.625278     -1.716064      0.672181
  C      -0.869597      0.382200     -1.748198
  C       0.460337      0.218976     -2.273104
  H      -1.681342      0.747746     -2.370408
  C       1.558953      0.306514     -1.428154
  C       2.752905      0.000631     -2.139937
  S       0.875207     -0.179607     -3.877497
  C       2.534143     -0.268150     -3.457540
  H       1.572146      1.277083     -0.586904
  H       3.741673      0.038487     -1.706205
  H       3.266583     -0.494842     -4.217456
  H      -0.752628     -3.215040     -0.207111
  H      -0.871074     -2.399205      2.385790
  H       1.588236     -1.558865      3.084323
  O       1.519347      2.358769      0.182686
  O       0.548229      0.968606      1.629884
  C       1.018721      2.107749      1.292156
  C       0.974752      3.174753      2.344966
  H       0.924299      4.162520      1.894390
  H       1.893814      3.127221      2.932368
  H       0.140377      3.029120      3.026517
  H       3.231452     -1.911089      0.999593
  H       1.764073     -2.906527     -1.056287
39
Coordinates from ORCA-job reaction4-IEIP_ts_guess_scan_5-12_orca E -1288.398358083153
  Ir      0.598915     -0.739012      0.493735
  C       0.066481     -2.830317      0.386977
  C      -0.010717     -2.363833      1.747043
  C       2.171814     -2.131582      1.028520
  C       1.392476     -2.670899     -0.060577
  C       1.309354     -1.974279      2.133233
  N      -1.038133      0.120296     -0.504636
  C      -2.320055      0.378650      0.173638
  C      -3.097376      1.547267     -0.414346
  H      -3.930568      1.784763      0.245623
  H      -3.529649      1.321570     -1.390062
  H      -2.483334      2.443967     -0.500587
  C      -3.155245     -0.896416      0.190956
  H      -2.049128      0.632242      1.199597
  H      -4.071528     -0.730272      0.755805
  H      -3.436499     -1.197284     -0.819109
  H      -2.627702     -1.724568      0.661540
  C      -0.868313      0.384457     -1.746570
  C       0.459711      0.223655     -2.273793
  H      -1.681029      0.751494     -2.366766
  C       1.559181      0.297021     -1.428804
  C       2.752522     -0.000075     -2.144342
  S       0.874376     -0.144979     -3.885139
  C       2.532211     -0.250793     -3.465540
  H       1.576817      1.269378     -0.586735
  H       3.741282      0.026130     -1.709839
  H       3.263705     -0.470542     -4.228409
  H      -0.754563     -3.216764     -0.199466
  H      -0.876556     -2.394710      2.391451
  H       1.582620     -1.554627      3.091071
  O       1.528068      2.353017      0.180371
  O       0.548303      0.970531      1.627254
  C       1.023037      2.106273      1.288673
  C       0.980286      3.177778      2.337235
  H       0.933511      4.163986      1.882948
  H       1.898118      3.129788      2.926512
  H       0.144212      3.037080      3.017798
  H       3.229082     -1.915204      1.010874
  H       1.763684     -2.913998     -1.045395
39
Coordinates from ORCA-job reaction4-IEIP_ts_guess_scan_5-12_orca E -1288.398367577792
  Ir      0.597813     -0.740428      0.495369
  C       0.065090     -2.830767      0.388665
  C      -0.013992     -2.363660      1.748482
  C       2.169894     -2.132896      1.033104
  C       1.391960     -2.672109     -0.057042
  C       1.305813     -1.974523      2.136358
  N      -1.036963      0.119290     -0.503310
  C      -2.319144      0.376716      0.175027
  C      -3.095671      1.547312     -0.410291
  H      -3.928517      1.783740      0.250492
  H      -3.528378      1.324322     -1.386441
  H      -2.481099      2.443834     -0.494588
  C      -3.155019     -0.897914      0.188435
  H      -2.048893      0.627883      1.201753
  H      -4.071922     -0.732574      0.752523
  H      -3.435203     -1.196241     -0.822687
  H      -2.628608     -1.727651      0.657619
  C      -0.867147      0.384202     -1.744848
  C       0.459864      0.222443     -2.272466
  H      -1.680199      0.750743     -2.364991
  C       1.560398      0.290954     -1.428511
  C       2.753471      0.000041     -2.146412
  S       0.873255     -0.142065     -3.885245
  C       2.532211     -0.240198     -3.469645
  H       1.579736      1.262885     -0.586487
  H       3.742636      0.025230     -1.712889
  H       3.263416     -0.451803     -4.235117
  H      -0.755121     -3.216955     -0.199118
  H      -0.880874     -2.393578      2.391541
  H       1.578005     -1.554325      3.094264
  O       1.531795      2.347966      0.178629
  O       0.548037      0.970335      1.625947
  C       1.024314      2.104596      1.286196
  C       0.980616      3.179314      2.331808
  H       0.934549      4.164166      1.874554
  H       1.897787      3.132808      2.922210
  H       0.143787      3.040903      3.011934
  H       3.227292     -1.917018      1.017158
  H       1.764383     -2.915787     -1.041242
39
Coordinates from ORCA-job reaction4-IEIP_ts_guess_scan_5-12_orca E -1288.398370236833
  Ir      0.598388     -0.740115      0.495056
  C       0.066847     -2.830675      0.386277
  C      -0.013020     -2.364320      1.746422
  C       2.171125     -2.132274      1.032338
  C       1.393843     -2.671030     -0.058560
  C       1.306595     -1.975078      2.135314
  N      -1.037422      0.120057     -0.503094
  C      -2.319358      0.377414      0.175626
  C      -3.095561      1.548331     -0.409508
  H      -3.928285      1.784940      0.251385
  H      -3.528336      1.325624     -1.385686
  H      -2.480685      2.444635     -0.493761
  C      -3.155360     -0.897129      0.188558
  H      -2.048979      0.628335      1.202354
  H      -4.072266     -0.731982      0.752726
  H      -3.435591     -1.195016     -0.822680
  H      -2.629058     -1.727140      0.657312
  C      -0.867995      0.384319     -1.745010
  C       0.459297      0.222812     -2.272203
  H      -1.681046      0.750515     -2.365299
  C       1.559777      0.293051     -1.428464
  C       2.752742     -0.000972     -2.145159
  S       0.873090     -0.144430     -3.884479
  C       2.531476     -0.245252     -3.467713
  H       1.579366      1.263685     -0.586172
  H       3.741832      0.024518     -1.711483
  H       3.262638     -0.460043     -4.232343
  H      -0.752854     -3.216909     -0.202183
  H      -0.880156     -2.395093      2.389108
  H       1.578228     -1.555494      3.093648
  O       1.531448      2.348753      0.178964
  O       0.548514      0.970415      1.626355
  C       1.024024      2.105345      1.286461
  C       0.979322      3.179750      2.332332
  H       0.931839      4.164538      1.875063
  H       1.896788      3.134343      2.922350
  H       0.142937      3.040300      3.012765
  H       3.228411     -1.915801      1.016932
  H       1.766814     -2.913738     -1.042806
39
Coordinates from ORCA-job reaction4-IEIP_ts_guess_scan_5-12_orca E -1288.398372952157
  Ir      0.598833     -0.740098      0.495299
  C       0.068459     -2.830771      0.384196
  C      -0.013871     -2.365042      1.744525
  C       2.171490     -2.131976      1.034446
  C       1.396184     -2.670316     -0.058063
  C       1.305046     -1.975715      2.135993
  N      -1.037269      0.120450     -0.502248
  C      -2.319048      0.377117      0.176922
  C      -3.094688      1.549283     -0.406601
  H      -3.927206      1.785468      0.254714
  H      -3.527593      1.328176     -1.383078
  H      -2.479283      2.445316     -0.489760
  C      -3.155402     -0.897199      0.187500
  H      -2.048748      0.626493      1.204021
  H      -4.072479     -0.732883      0.751655
  H      -3.435399     -1.193257     -0.824343
  H      -2.629482     -1.728247      0.654840
  C      -0.868472      0.384554     -1.744469
  C       0.458707      0.223419     -2.271954
  H      -1.681848      0.750428     -2.364488
  C       1.559564      0.292690     -1.428753
  C       2.752070     -0.002215     -2.145620
  S       0.872109     -0.143338     -3.884743
  C       2.530063     -0.246941     -3.468091
  H       1.580790      1.262132     -0.585440
  H       3.741345      0.022560     -1.712346
  H       3.260835     -0.462659     -4.232840
  H      -0.749933     -3.217102     -0.206012
  H      -0.882049     -2.396549      2.385774
  H       1.574969     -1.556615      3.095023
  O       1.534027      2.347813      0.178897
  O       0.548881      0.970796      1.626269
  C       1.024815      2.105696      1.285859
  C       0.978057      3.181032      2.330632
  H       0.929127      4.165161      1.872059
  H       1.895481      3.137774      2.920854
  H       0.141710      3.041106      3.010984
  H       3.228714     -1.915083      1.020984
  H       1.770865     -2.912267     -1.041857
39
Coordinates from ORCA-job reaction4-IEIP_ts_guess_scan_5-12_orca E -1288.398377411787
  Ir      0.599544     -0.740241      0.496109
  C       0.071138     -2.831179      0.381590
  C      -0.016698     -2.366098      1.741952
  C       2.171410     -2.131496      1.040672
  C       1.400545     -2.669583     -0.055023
  C       1.300499     -1.976386      2.138854
  N      -1.036787      0.120556     -0.500580
  C      -2.318543      0.375515      0.179198
  C      -3.093074      1.550451     -0.400487
  H      -3.925370      1.785275      0.261592
  H      -3.526006      1.333092     -1.377784
  H      -2.476691      2.446070     -0.480727
  C      -3.155694     -0.898286      0.184302
  H      -2.048657      0.621186      1.207264
  H      -4.073108     -0.735896      0.748492
  H      -3.435204     -1.190076     -0.828923
  H      -2.630561     -1.731677      0.648366
  C      -0.869082      0.385149     -1.743058
  C       0.457551      0.224735     -2.271742
  H      -1.683241      0.750697     -2.362223
  C       1.559347      0.290213     -1.429657
  C       2.750766     -0.004711     -2.147952
  S       0.869506     -0.138185     -3.886190
  C       2.527069     -0.246057     -3.470946
  H       1.584622      1.257900     -0.583929
  H       3.740519      0.017641     -1.715673
  H       3.256947     -0.461124     -4.236743
  H      -0.744424     -3.217949     -0.212221
  H      -0.887227     -2.398672      2.379958
  H       1.566516     -1.557723      3.099170
  O       1.541310      2.344901      0.178734
  O       0.549525      0.971854      1.625594
  C       1.027459      2.105921      1.284287
  C       0.977060      3.183680      2.326290
  H       0.925901      4.166357      1.864784
  H       1.894299      3.144522      2.917051
  H       0.140595      3.043502      3.006385
  H       3.228555     -1.914046      1.031540
  H       1.779054     -2.910643     -1.037584
