39
Generated by autodE on: 2023-08-14. E = -1288.399067 Ha
Ir    0.59877  -0.71982   0.45965
C     0.04809  -2.80777   0.36746
C     0.08178  -2.34857   1.73216
C     2.19907  -2.12714   0.84547
C     1.33267  -2.65084  -0.18593
C     1.43514  -1.97500   2.01829
N    -1.04440   0.15122  -0.52071
C    -2.31790   0.44905   0.15434
C    -3.11643   1.55729  -0.51395
H    -3.94478   1.83568   0.13612
H    -3.55769   1.25086  -1.46360
H    -2.51605   2.45279  -0.67654
C    -3.13567  -0.83000   0.28981
H    -2.03095   0.78556   1.15182
H    -4.05094  -0.62229   0.84216
H    -3.41828  -1.22490  -0.68691
H    -2.59718  -1.60415   0.83431
C    -0.86103   0.38023  -1.76529
C     0.48092   0.18334  -2.25507
H    -1.65627   0.74083  -2.41110
C     1.57217   0.38704  -1.41625
C     2.77973   0.02098  -2.07762
S     0.92026  -0.40242  -3.79197
C     2.57873  -0.41497  -3.35057
H     1.53355   1.30845  -0.62969
H     3.76201   0.13127  -1.64167
H     3.32055  -0.72242  -4.07210
H    -0.82200  -3.17915  -0.15468
H    -0.73170  -2.37673   2.44179
H     1.78871  -1.56842   2.95500
O     1.39339   2.42699   0.22439
O     0.53379   0.94060   1.64556
C     0.94984   2.11678   1.33246
C     0.89803   3.12623   2.44361
H     0.87482   4.13724   2.04622
H     1.79830   3.02805   3.05343
H     0.04451   2.96108   3.09750
H     3.25076  -1.90675   0.74042
H     1.62505  -2.89106  -1.19758
