39
Coordinates from ORCA-job reaction4-IEIP_ts_guess_scan_2-13_orca E -1288.393245028758
  Ir      0.571810     -0.736146      0.509675
  C       0.022979     -2.814670      0.375972
  C       0.058123     -2.368330      1.747055
  C       2.176149     -2.146463      0.867578
  C       1.307451     -2.648853     -0.173502
  C       1.416652     -2.011230      2.043259
  N      -1.041987      0.141874     -0.501744
  C      -2.327516      0.442235      0.152559
  C      -3.116370      1.546815     -0.533619
  H      -3.950898      1.832792      0.105214
  H      -3.548410      1.233854     -1.485301
  H      -2.512016      2.439268     -0.697993
  C      -3.148676     -0.834859      0.284257
  H      -2.057748      0.786317      1.152467
  H      -4.074230     -0.622455      0.817420
  H      -3.413258     -1.238164     -0.694144
  H      -2.621757     -1.604952      0.845778
  C      -0.842931      0.354534     -1.744982
  C       0.500627      0.172177     -2.230136
  H      -1.638772      0.692290     -2.403251
  C       1.607669      0.460500     -1.443954
  C       2.803655      0.104544     -2.126623
  S       0.914143     -0.451448     -3.768746
  C       2.581347     -0.387571     -3.377113
  H       1.548224      1.365925     -0.586916
  H       3.795216      0.261898     -1.727396
  H       3.314298     -0.698436     -4.106458
  H      -0.848340     -3.176345     -0.150832
  H      -0.755958     -2.404793      2.456072
  H       1.771906     -1.623205      2.987148
  O       1.417073      2.384527      0.233204
  O       0.541863      0.935545      1.674211
  C       0.968237      2.099332      1.346295
  C       0.929418      3.131153      2.435410
  H       0.870860      4.132353      2.016938
  H       1.853200      3.068266      3.014090
  H       0.102495      2.961668      3.121054
  H       3.225858     -1.917380      0.759211
  H       1.598985     -2.863377     -1.191416
39
Coordinates from ORCA-job reaction4-IEIP_ts_guess_scan_2-13_orca E -1288.393388270399
  Ir      0.574400     -0.737297      0.509844
  C       0.021577     -2.816222      0.380972
  C       0.055384     -2.368522      1.751354
  C       2.174929     -2.150512      0.874345
  C       1.307023     -2.653664     -0.166863
  C       1.413598     -2.011865      2.048422
  N      -1.042189      0.141623     -0.503855
  C      -2.326873      0.440965      0.151035
  C      -3.117036      1.543135     -0.537375
  H      -3.952598      1.828613      0.100319
  H      -3.547549      1.227928     -1.489045
  H      -2.514147      2.436427     -0.702621
  C      -3.145518     -0.837434      0.284842
  H      -2.056746      0.786788      1.150246
  H      -4.070851     -0.626094      0.818783
  H      -3.410411     -1.242193     -0.692867
  H      -2.616489     -1.605969      0.846576
  C      -0.845152      0.357622     -1.749346
  C       0.499015      0.181223     -2.240041
  H      -1.642589      0.698744     -2.403961
  C       1.604808      0.457415     -1.447846
  C       2.801111      0.100717     -2.130274
  S       0.913356     -0.432610     -3.782041
  C       2.579996     -0.380281     -3.385206
  H       1.547509      1.370868     -0.587041
  H       3.792337      0.250931     -1.727425
  H       3.313432     -0.688266     -4.115183
  H      -0.849437     -3.177684     -0.146494
  H      -0.759482     -2.403437      2.459442
  H       1.768001     -1.622631      2.992118
  O       1.421424      2.389953      0.233273
  O       0.541681      0.937464      1.675689
  C       0.971081      2.101538      1.348258
  C       0.933003      3.132354      2.438140
  H       0.875553      4.134064      2.020627
  H       1.856513      3.067889      3.017039
  H       0.105655      2.962912      3.123199
  H       3.225302     -1.924056      0.767476
  H       1.599753     -2.871246     -1.183776
39
Coordinates from ORCA-job reaction4-IEIP_ts_guess_scan_2-13_orca E -1288.393454537458
  Ir      0.573841     -0.738158      0.511212
  C       0.016585     -2.816664      0.389637
  C       0.046792     -2.366150      1.758585
  C       2.169359     -2.153301      0.886808
  C       1.303998     -2.658463     -0.155068
  C       1.403925     -2.009425      2.057866
  N      -1.039194      0.138667     -0.504785
  C      -2.324028      0.436910      0.150070
  C      -3.116359      1.537868     -0.537883
  H      -3.952393      1.821767      0.099930
  H      -3.546481      1.222108     -1.489518
  H      -2.515178      2.432334     -0.703007
  C      -3.141418     -0.842197      0.285195
  H      -2.053656      0.783306      1.149049
  H      -4.066402     -0.631609      0.820107
  H      -3.406919     -1.247455     -0.692122
  H      -2.610976     -1.609935      0.846524
  C      -0.842935      0.359160     -1.750810
  C       0.500423      0.186628     -2.248148
  H      -1.641706      0.703809     -2.401581
  C       1.606701      0.446801     -1.451110
  C       2.802241      0.099084     -2.139926
  S       0.912535     -0.404855     -3.798739
  C       2.579781     -0.360603     -3.402523
  H       1.552385      1.368674     -0.586819
  H       3.793946      0.242048     -1.735566
  H       3.312275     -0.656578     -4.138351
  H      -0.853383     -3.178186     -0.139480
  H      -0.770064     -2.398161      2.464409
  H       1.755907     -1.617397      3.001317
  O       1.431469      2.388921      0.232829
  O       0.537428      0.938256      1.673679
  C       0.974225      2.099589      1.347384
  C       0.936931      3.131308      2.435718
  H       0.885566      4.133005      2.017356
  H       1.857952      3.062934      3.018135
  H       0.106137      2.965748      3.117458
  H       3.220687     -1.929980      0.783087
  H       1.599372     -2.880617     -1.170179
39
Coordinates from ORCA-job reaction4-IEIP_ts_guess_scan_2-13_orca E -1288.393476770188
  Ir      0.574851     -0.740752      0.513747
  C       0.014801     -2.818963      0.399897
  C       0.042132     -2.364428      1.767221
  C       2.167315     -2.157013      0.899373
  C       1.303851     -2.664797     -0.142648
  C       1.398628     -2.007598      2.067833
  N      -1.037924      0.135395     -0.506548
  C      -2.324017      0.431081      0.147899
  C      -3.116672      1.534038     -0.536460
  H      -3.953392      1.814825      0.101814
  H      -3.545992      1.221622     -1.489553
  H      -2.516175      2.429684     -0.697695
  C      -3.142276     -0.848070      0.278267
  H      -2.054963      0.774420      1.148303
  H      -4.067830     -0.638557      0.812614
  H      -3.406752     -1.250260     -0.700597
  H      -2.613129     -1.617700      0.837968
  C      -0.842277      0.362266     -1.751533
  C       0.499319      0.193964     -2.253538
  H      -1.642447      0.709569     -2.399075
  C       1.606280      0.438719     -1.452630
  C       2.800813      0.097553     -2.146003
  S       0.909820     -0.368887     -3.814531
  C       2.576857     -0.341612     -3.415718
  H       1.556292      1.364644     -0.586657
  H       3.792873      0.228726     -1.738550
  H       3.308287     -0.630118     -4.155541
  H      -0.854302     -3.181189     -0.130162
  H      -0.776333     -2.393127      2.471283
  H       1.748804     -1.612296      3.010613
  O       1.440265      2.386474      0.231725
  O       0.537208      0.940359      1.672100
  C       0.978819      2.098640      1.345666
  C       0.943899      3.132922      2.431372
  H       0.896898      4.133964      2.011015
  H       1.863783      3.062234      3.015340
  H       0.111405      2.971624      3.112090
  H       3.219431     -1.936387      0.798095
  H       1.601222     -2.891780     -1.156057
39
Coordinates from ORCA-job reaction4-IEIP_ts_guess_scan_2-13_orca E -1288.393489332245
  Ir      0.574662     -0.744387      0.518139
  C       0.011799     -2.821695      0.411157
  C       0.034521     -2.362700      1.776801
  C       2.163630     -2.161708      0.915827
  C       1.303324     -2.671961     -0.127506
  C       1.390189     -2.006246      2.080573
  N      -1.035432      0.131720     -0.507268
  C      -2.322916      0.424559      0.146743
  C      -3.115076      1.531180     -0.532340
  H      -3.952135      1.808407      0.107019
  H      -3.544065      1.223928     -1.487255
  H      -2.514677      2.427817     -0.688400
  C      -3.142664     -0.854437      0.269767
  H      -2.055521      0.763120      1.149237
  H      -4.069102     -0.646320      0.803101
  H      -3.405531     -1.251984     -0.711427
  H      -2.615663     -1.627192      0.827112
  C      -0.840353      0.364363     -1.750971
  C       0.498604      0.198817     -2.257375
  H      -1.642216      0.712870     -2.395864
  C       1.607169      0.425610     -1.453325
  C       2.800275      0.097290     -2.154535
  S       0.905881     -0.339485     -3.827343
  C       2.573878     -0.312648     -3.433787
  H       1.562636      1.354062     -0.586124
  H       3.793076      0.219052     -1.746067
  H       3.303812     -0.584907     -4.181199
  H      -0.855755     -3.184456     -0.121075
  H      -0.786626     -2.387343      2.477867
  H       1.737442     -1.607468      3.022996
  O       1.450742      2.378717      0.229296
  O       0.536706      0.941580      1.670272
  C       0.983978      2.095710      1.342361
  C       0.950678      3.135264      2.423295
  H       0.908592      4.134663      1.998653
  H       1.868892      3.063435      3.009762
  H       0.115952      2.980081      3.102783
  H       3.216727     -1.944072      0.818570
  H       1.603937     -2.904044     -1.138732
39
Coordinates from ORCA-job reaction4-IEIP_ts_guess_scan_2-13_orca E -1288.393497739177
  Ir      0.573473     -0.744833      0.519552
  C       0.011604     -2.821868      0.412678
  C       0.031152     -2.361789      1.778035
  C       2.162290     -2.161232      0.921673
  C       1.304401     -2.672304     -0.123259
  C       1.386126     -2.004878      2.084501
  N      -1.034239      0.130540     -0.506642
  C      -2.321990      0.421505      0.147944
  C      -3.113735      1.530909     -0.527232
  H      -3.950392      1.806268      0.113465
  H      -3.543328      1.227183     -1.482994
  H      -2.513005      2.427803     -0.680453
  C      -3.142153     -0.857681      0.265902
  H      -2.055112      0.756541      1.151758
  H      -4.069048     -0.651050      0.799028
  H      -3.404208     -1.251897     -0.716851
  H      -2.615999     -1.632614      0.821130
  C      -0.839579      0.365068     -1.749914
  C       0.498314      0.200973     -2.257700
  H      -1.642218      0.713666     -2.393891
  C       1.608106      0.420664     -1.453462
  C       2.800303      0.095786     -2.157237
  S       0.904475     -0.321394     -3.833352
  C       2.572032     -0.307115     -3.438608
  H       1.566725      1.347708     -0.585382
  H       3.793559      0.211344     -1.748135
  H       3.300873     -0.577651     -4.187711
  H      -0.854563     -3.185198     -0.121416
  H      -0.791669     -2.385660      2.477173
  H       1.731251     -1.605111      3.027293
  O       1.455814      2.374057      0.228039
  O       0.535528      0.942324      1.668874
  C       0.985552      2.094754      1.340188
  C       0.951363      3.137246      2.418682
  H       0.911311      4.135626      1.991504
  H       1.868327      3.065718      3.007123
  H       0.115168      2.984837      3.097019
  H       3.215643     -1.943727      0.826998
  H       1.607221     -2.905327     -1.133580
39
Coordinates from ORCA-job reaction4-IEIP_ts_guess_scan_2-13_orca E -1288.393504637286
  Ir      0.573741     -0.745055      0.520340
  C       0.013420     -2.822373      0.411200
  C       0.030804     -2.362557      1.776840
  C       2.163122     -2.160830      0.923864
  C       1.306919     -2.671753     -0.122609
  C       1.385348     -2.005418      2.085623
  N      -1.034148      0.130749     -0.505840
  C      -2.321764      0.421076      0.149309
  C      -3.112218      1.532781     -0.523681
  H      -3.948519      1.807840      0.117632
  H      -3.542157      1.231426     -1.480023
  H      -2.510378      2.429198     -0.675194
  C      -3.142837     -0.857846      0.263680
  H      -2.055057      0.753574      1.153979
  H      -4.070024     -0.651921      0.796620
  H      -3.404444     -1.249622     -0.720169
  H      -2.617618     -1.634486      0.817359
  C      -0.840168      0.364761     -1.749459
  C       0.497442      0.200977     -2.257328
  H      -1.643273      0.712446     -2.393327
  C       1.607705      0.419476     -1.453594
  C       2.799541      0.094284     -2.157467
  S       0.903245     -0.320608     -3.833640
  C       2.570601     -0.307611     -3.439204
  H       1.567833      1.344791     -0.584831
  H       3.792979      0.209082     -1.748623
  H       3.299189     -0.577833     -4.188675
  H      -0.851644     -3.186111     -0.124394
  H      -0.793091     -2.386947      2.474717
  H       1.728973     -1.605959      3.029091
  O       1.456561      2.372293      0.227084
  O       0.536115      0.942488      1.669284
  C       0.985690      2.095058      1.339230
  C       0.949995      3.138792      2.416538
  H       0.908679      4.136539      1.987979
  H       1.867008      3.069168      3.005110
  H       0.113961      2.986245      3.095012
  H       3.216512     -1.942750      0.830909
  H       1.611326     -2.904173     -1.132601
39
Coordinates from ORCA-job reaction4-IEIP_ts_guess_scan_2-13_orca E -1288.393512855948
  Ir      0.574391     -0.745488      0.522184
  C       0.016091     -2.823339      0.409479
  C       0.027474     -2.363451      1.775362
  C       2.163383     -2.160567      0.931852
  C       1.311765     -2.671542     -0.118395
  C       1.380684     -2.006054      2.090275
  N      -1.032973      0.130754     -0.503907
  C      -2.320528      0.418919      0.152306
  C      -3.108642      1.535836     -0.515019
  H      -3.944420      1.809394      0.127637
  H      -3.539011      1.240193     -1.472920
  H      -2.504714      2.431567     -0.662008
  C      -3.143183     -0.859731      0.257995
  H      -2.054353      0.745132      1.159109
  H      -4.070864     -0.656212      0.791059
  H      -3.404016     -1.245305     -0.728508
  H      -2.619388     -1.640426      0.807317
  C      -0.840772      0.364535     -1.748165
  C       0.495878      0.201878     -2.257742
  H      -1.645361      0.710708     -2.390976
  C       1.607442      0.414938     -1.454644
  C       2.798101      0.091257     -2.160577
  S       0.899835     -0.314617     -3.836713
  C       2.567065     -0.304576     -3.444120
  H       1.571678      1.338144     -0.583614
  H       3.792171      0.203358     -1.752589
  H       3.294714     -0.571954     -4.195535
  H      -0.846161     -3.187927     -0.130040
  H      -0.799449     -2.388315      2.469653
  H       1.720101     -1.606742      3.035328
  O       1.460933      2.368483      0.224769
  O       0.537246      0.943366      1.669509
  C       0.987300      2.095509      1.336675
  C       0.948037      3.142244      2.410826
  H       0.904748      4.138535      1.979015
  H       1.864727      3.076535      3.000305
  H       0.111746      2.989823      3.088948
  H       3.217102     -1.942083      0.843753
  H       1.620592     -2.903589     -1.127142
39
Coordinates from ORCA-job reaction4-IEIP_ts_guess_scan_2-13_orca E -1288.393516581260
  Ir      0.575338     -0.745693      0.523200
  C       0.018395     -2.824103      0.408437
  C       0.024880     -2.364046      1.774352
  C       2.163673     -2.160203      0.938393
  C       1.315817     -2.671548     -0.114694
  C       1.376805     -2.006186      2.094052
  N      -1.032157      0.130350     -0.502568
  C      -2.319722      0.417149      0.154285
  C      -3.105973      1.538013     -0.508745
  H      -3.941499      1.810463      0.134702
  H      -3.536451      1.246711     -1.467906
  H      -2.500386      2.433188     -0.652163
  C      -3.143874     -0.861063      0.253641
  H      -2.053863      0.738572      1.162682
  H      -4.071576     -0.659276      0.787343
  H      -3.404735     -1.241653     -0.734795
  H      -2.620951     -1.644985      0.799181
  C      -0.841272      0.364180     -1.747165
  C       0.494700      0.202261     -2.258420
  H      -1.646952      0.709704     -2.388958
  C       1.607196      0.411958     -1.455877
  C       2.796937      0.089297     -2.163601
  S       0.896960     -0.310493     -3.839251
  C       2.564304     -0.302465     -3.448211
  H       1.574157      1.334502     -0.583042
  H       3.791510      0.199617     -1.756375
  H       3.291200     -0.568063     -4.200989
  H      -0.841625     -3.189484     -0.134080
  H      -0.804408     -2.389392      2.465806
  H       1.712682     -1.606747      3.040322
  O       1.464436      2.366575      0.223267
  O       0.538245      0.944033      1.669277
  C       0.988635      2.095772      1.334872
  C       0.946919      3.144340      2.406979
  H       0.902034      4.139751      1.973258
  H       1.863536      3.081444      2.996866
  H       0.110581      2.991600      3.084930
  H       3.217648     -1.941498      0.854130
  H       1.628224     -2.903394     -1.122395
39
Coordinates from ORCA-job reaction4-IEIP_ts_guess_scan_2-13_orca E -1288.393520791912
  Ir      0.577171     -0.745951      0.524350
  C       0.022444     -2.825331      0.406407
  C       0.019994     -2.364916      1.772249
  C       2.164018     -2.159342      0.949958
  C       1.323063     -2.671662     -0.108113
  C       1.369383     -2.005992      2.100505
  N      -1.030944      0.129326     -0.500334
  C      -2.318574      0.413748      0.157539
  C      -3.101618      1.541550     -0.497663
  H      -3.936911      1.811698      0.147029
  H      -3.532015      1.258096     -1.459177
  H      -2.493266      2.435879     -0.634400
  C      -3.145268     -0.863678      0.245688
  H      -2.053241      0.726517      1.168749
  H      -4.072527     -0.665301      0.781434
  H      -3.406995     -1.234829     -0.746115
  H      -2.623279     -1.653534      0.783557
  C      -0.842174      0.363515     -1.745292
  C       0.492697      0.202489     -2.259505
  H      -1.649547      0.708418     -2.385320
  C       1.606735      0.407839     -1.458173
  C       2.794915      0.086642     -2.169045
  S       0.891761     -0.305000     -3.842993
  C       2.559561     -0.299800     -3.454833
  H       1.577798      1.329891     -0.582715
  H       3.790347      0.194580     -1.763300
  H       3.285118     -0.563141     -4.209692
  H      -0.833587     -3.192137     -0.141409
  H      -0.813511     -2.391184      2.458584
  H       1.698676     -1.606051      3.048894
  O       1.470662      2.364421      0.220788
  O       0.540409      0.945489      1.668251
  C       0.991338      2.096426      1.331778
  C       0.945864      3.147891      2.400703
  H       0.897865      4.141946      1.964151
  H       1.862732      3.089893      2.990693
  H       0.109871      2.994234      3.078827
  H       3.218438     -1.940368      0.872582
  H       1.641968     -2.903083     -1.113896
39
Coordinates from ORCA-job reaction4-IEIP_ts_guess_scan_2-13_orca E -1288.393523810137
  Ir      0.578949     -0.746209      0.524995
  C       0.027144     -2.826536      0.403788
  C       0.015468     -2.366006      1.769558
  C       2.164677     -2.157781      0.961081
  C       1.330964     -2.671410     -0.102011
  C       1.362018     -2.005366      2.106382
  N      -1.030295      0.127955     -0.498447
  C      -2.317850      0.410564      0.160469
  C      -3.097613      1.544989     -0.487264
  H      -3.932778      1.812902      0.158502
  H      -3.527805      1.269141     -1.451051
  H      -2.486610      2.438468     -0.617464
  C      -3.147226     -0.865834      0.238221
  H      -2.052830      0.715135      1.174230
  H      -4.073491     -0.670662      0.776847
  H      -3.410773     -1.227475     -0.756616
  H      -2.625810     -1.661611      0.767896
  C      -0.843376      0.362521     -1.743586
  C       0.490574      0.201946     -2.260392
  H      -1.652038      0.707358     -2.382080
  C       1.605944      0.404901     -1.460417
  C       2.792777      0.084657     -2.174016
  S       0.886622     -0.302060     -3.845693
  C       2.555073     -0.298656     -3.460278
  H       1.580016      1.326837     -0.583307
  H       3.788938      0.191066     -1.769660
  H       3.279386     -0.560744     -4.216759
  H      -0.824780     -3.194887     -0.149349
  H      -0.822230     -2.393589      2.450720
  H       1.684411     -1.604692      3.056854
  O       1.476096      2.362951      0.218575
  O       0.542416      0.946733      1.666715
  C       0.993820      2.096854      1.328944
  C       0.945612      3.150797      2.395290
  H       0.894232      4.143688      1.956443
  H       1.863235      3.097426      2.984545
  H       0.110573      2.996055      3.074315
  H       3.219442     -1.938271      0.890649
  H       1.656489     -2.901969     -1.105892
39
Coordinates from ORCA-job reaction4-IEIP_ts_guess_scan_2-13_orca E -1288.393526098200
  Ir      0.580564     -0.746520      0.525325
  C       0.033081     -2.827860      0.399867
  C       0.010076     -2.367527      1.765609
  C       2.165411     -2.155185      0.973871
  C       1.340728     -2.670634     -0.095318
  C       1.352969     -2.004219      2.112733
  N      -1.030133      0.126235     -0.496593
  C      -2.317509      0.406861      0.163642
  C      -3.093692      1.548591     -0.475562
  H      -3.928894      1.813549      0.171367
  H      -3.523447      1.281488     -1.441970
  H      -2.480023      2.441310     -0.598075
  C      -3.149733     -0.868361      0.229777
  H      -2.052768      0.702294      1.180138
  H      -4.074375     -0.677146      0.772583
  H      -3.416183     -1.218716     -0.768322
  H      -2.628447     -1.670993      0.749212
  C      -0.845112      0.361314     -1.741800
  C       0.487926      0.200844     -2.261143
  H      -1.654870      0.706426     -2.378832
  C       1.604651      0.402518     -1.462788
  C       2.790135      0.082870     -2.179033
  S       0.880786     -0.300845     -3.847759
  C       2.550098     -0.298707     -3.465300
  H       1.581274      1.324620     -0.585039
  H       3.786993      0.188226     -1.776116
  H       3.273039     -0.560140     -4.223304
  H      -0.813784     -3.198094     -0.159739
  H      -0.832648     -2.396977      2.440469
  H       1.666848     -1.602489      3.065640
  O       1.481983      2.361779      0.216079
  O       0.544569      0.948396      1.664479
  C       0.996910      2.097476      1.325809
  C       0.946945      3.153974      2.389674
  H       0.891300      4.145598      1.948466
  H       1.866104      3.105679      2.976975
  H       0.113822      2.998051      3.070761
  H       3.220489     -1.934801      0.911888
  H       1.674287     -2.899693     -1.096932
39
Coordinates from ORCA-job reaction4-IEIP_ts_guess_scan_2-13_orca E -1288.393527875922
  Ir      0.581345     -0.746725      0.525507
  C       0.038773     -2.828926      0.395763
  C       0.005783     -2.369258      1.761612
  C       2.166182     -2.152051      0.984384
  C       1.349619     -2.669188     -0.090185
  C       1.345311     -2.002982      2.117636
  N      -1.030599      0.124855     -0.495475
  C      -2.317681      0.404181      0.165963
  C      -3.091198      1.551227     -0.466946
  H      -3.926544      1.813740      0.180805
  H      -3.520478      1.290756     -1.435349
  H      -2.475743      2.443490     -0.583533
  C      -3.152055     -0.870050      0.223643
  H      -2.053026      0.693087      1.184321
  H      -4.075105     -0.681879      0.770211
  H      -3.421326     -1.211643     -0.776730
  H      -2.630674     -1.677959      0.734783
  C      -0.847014      0.360183     -1.740734
  C       0.485414      0.199584     -2.261699
  H      -1.657384      0.705638     -2.376863
  C       1.603070      0.401039     -1.464555
  C       2.787678      0.081573     -2.182424
  S       0.876155     -0.301336     -3.848857
  C       2.546135     -0.299694     -3.468446
  H       1.580984      1.323446     -0.587330
  H       3.784952      0.186506     -1.780425
  H       3.268030     -0.561047     -4.227462
  H      -0.803531     -3.200888     -0.169545
  H      -0.841259     -2.400713      2.430960
  H       1.651706     -1.600345      3.072622
  O       1.486152      2.360755      0.214133
  O       0.545690      0.949677      1.662504
  C       0.999419      2.097828      1.323500
  C       0.949539      3.155983      2.385884
  H       0.890083      4.146653      1.943019
  H       1.870618      3.111414      2.970463
  H       0.118795      2.999199      3.069656
  H       3.221396     -1.930499      0.929815
  H       1.690157     -2.896442     -1.089885
39
Coordinates from ORCA-job reaction4-IEIP_ts_guess_scan_2-13_orca E -1288.393528963518
  Ir      0.581275     -0.746731      0.525648
  C       0.043053     -2.829638      0.392298
  C       0.002417     -2.370726      1.758297
  C       2.166481     -2.149157      0.992120
  C       1.356230     -2.667592     -0.086581
  C       1.339312     -2.001918      2.121097
  N      -1.031270      0.124109     -0.494979
  C      -2.318136      0.402405      0.167344
  C      -3.090340      1.552505     -0.461666
  H      -3.925919      1.813071      0.186592
  H      -3.519166      1.296197     -1.431365
  H      -2.474155      2.444749     -0.574376
  C      -3.153526     -0.871365      0.219834
  H      -2.053537      0.687558      1.186744
  H      -4.075484     -0.685377      0.768995
  H      -3.424717     -1.207412     -0.781890
  H      -2.631863     -1.682547      0.725520
  C      -0.848658      0.359507     -1.740324
  C       0.483402      0.198802     -2.262154
  H      -1.659372      0.705021     -2.376000
  C       1.601604      0.400096     -1.465670
  C       2.785744      0.080673     -2.184300
  S       0.873100     -0.301879     -3.849531
  C       2.543407     -0.300493     -3.470207
  H       1.580065      1.322852     -0.589457
  H       3.783213      0.185406     -1.782734
  H       3.264613     -0.561792     -4.229892
  H      -0.795666     -3.202971     -0.177422
  H      -0.847913     -2.403782      2.423391
  H       1.640038     -1.598680      3.077648
  O       1.488935      2.359962      0.212694
  O       0.546006      0.950874      1.661137
  C       1.001550      2.098253      1.322003
  C       0.953148      3.157160      2.383779
  H       0.890654      4.147238      1.939976
  H       1.876218      3.114843      2.965365
  H       0.124840      2.999816      3.070341
  H       3.221734     -1.926532      0.943295
  H       1.702055     -2.893315     -1.084829
39
Coordinates from ORCA-job reaction4-IEIP_ts_guess_scan_2-13_orca E -1288.393530010197
  Ir      0.580879     -0.746591      0.525860
  C       0.045645     -2.830088      0.390236
  C       0.000470     -2.371720      1.756339
  C       2.166555     -2.147096      0.996683
  C       1.360101     -2.666312     -0.084466
  C       1.335762     -2.001244      2.123163
  N      -1.031809      0.123880     -0.494953
  C      -2.318546      0.401710      0.167814
  C      -3.090420      1.552838     -0.459779
  H      -3.926142      1.812495      0.188673
  H      -3.518999      1.298129     -1.430000
  H      -2.474114      2.445187     -0.570936
  C      -3.154228     -0.871922      0.218435
  H      -2.053925      0.685716      1.187514
  H      -4.075770     -0.686819      0.768603
  H      -3.426160     -1.205897     -0.783779
  H      -2.632467     -1.684351      0.722016
  C      -0.849769      0.359125     -1.740435
  C       0.482100      0.198491     -2.262643
  H      -1.660728      0.704428     -2.375906
  C       1.600528      0.399340     -1.466323
  C       2.784524      0.080170     -2.185197
  S       0.871577     -0.301710     -3.850245
  C       2.541903     -0.300517     -3.471237
  H       1.579082      1.322304     -0.590723
  H       3.782048      0.184725     -1.783729
  H       3.262785     -0.561541     -4.231327
  H      -0.790850     -3.204372     -0.182117
  H      -0.851812     -2.405757      2.418884
  H       1.633169     -1.597758      3.080654
  O       1.490130      2.359256      0.211876
  O       0.545682      0.951512      1.660564
  C       1.002809      2.098392      1.321336
  C       0.956200      3.157308      2.383148
  H       0.891640      4.147179      1.939138
  H       1.880878      3.116008      2.962238
  H       0.129824      2.999471      3.071885
  H       3.221780     -1.923651      0.951323
  H       1.709039     -2.891128     -1.081847
39
Coordinates from ORCA-job reaction4-IEIP_ts_guess_scan_2-13_orca E -1288.393530542111
  Ir      0.580439     -0.746423      0.526055
  C       0.047045     -2.830449      0.389177
  C      -0.001056     -2.372247      1.755270
  C       2.166310     -2.145767      0.999876
  C       1.362303     -2.665548     -0.082801
  C       1.333193     -2.000752      2.124727
  N      -1.032120      0.123831     -0.495026
  C      -2.318857      0.401253      0.167906
  C      -3.090831      1.552679     -0.459087
  H      -3.926639      1.811814      0.189467
  H      -3.519278      1.298608     -1.429530
  H      -2.474610      2.445170     -0.569576
  C      -3.154449     -0.872446      0.217731
  H      -2.054270      0.684911      1.187703
  H      -4.075988     -0.687831      0.768077
  H      -3.426409     -1.205709     -0.784712
  H      -2.632656     -1.685282      0.720625
  C      -0.850447      0.358970     -1.740634
  C       0.481262      0.198543     -2.263142
  H      -1.661687      0.703921     -2.375921
  C       1.599813      0.398582     -1.466801
  C       2.783755      0.079900     -2.185853
  S       0.870742     -0.300556     -3.851169
  C       2.540968     -0.299693     -3.472239
  H       1.578446      1.321623     -0.591311
  H       3.781313      0.184130     -1.784398
  H       3.261688     -0.560124     -4.232689
  H      -0.787973     -3.205454     -0.184852
  H      -0.854630     -2.406748      2.416127
  H       1.628472     -1.597115      3.082815
  O       1.490847      2.358738      0.211226
  O       0.545379      0.952065      1.660323
  C       1.003828      2.098550      1.320916
  C       0.958901      3.157266      2.382922
  H       0.892599      4.147092      1.939021
  H       1.884993      3.116656      2.959788
  H       0.134197      2.998837      3.073487
  H       3.221513     -1.921793      0.956797
  H       1.713265     -2.890010     -1.079558
