39
Generated by autodE on: 2023-08-15. E = -1288.401262 Ha
Ir    0.61375  -0.72828   0.42160
C     0.11734  -2.84078   0.35681
C    -0.05404  -2.37832   1.70870
C     2.16311  -2.08343   1.11634
C     1.47200  -2.66831  -0.00177
C     1.21446  -1.93476   2.16158
N    -1.06514   0.12364  -0.51570
C    -2.33757   0.33085   0.19206
C    -3.14011   1.51758  -0.32184
H    -3.97013   1.70157   0.35847
H    -3.57764   1.33951  -1.30514
H    -2.54235   2.42846  -0.36216
C    -3.15585  -0.95501   0.14704
H    -2.05584   0.53255   1.22666
H    -4.06429  -0.83682   0.73628
H    -3.45023  -1.19780  -0.87477
H    -2.60908  -1.80334   0.55512
C    -0.90898   0.47174  -1.73982
C     0.41125   0.29626  -2.26607
H    -1.71539   0.90035  -2.32603
C     1.45076   0.08629  -1.35793
C     2.66479  -0.16731  -2.06938
S     0.89753   0.21084  -3.88806
C     2.51167  -0.12506  -3.42139
H     1.62492   1.13661  -0.62622
H     3.62373  -0.31355  -1.59360
H     3.27143  -0.25236  -4.17751
H    -0.65057  -3.26453  -0.27390
H    -0.95882  -2.41789   2.29575
H     1.41317  -1.48833   3.12576
O     1.72201   2.30893   0.13289
O     0.55835   1.01895   1.52356
C     1.11984   2.11610   1.20477
C     1.06235   3.22384   2.21570
H     0.95028   4.18622   1.72165
H     2.00571   3.25074   2.76374
H     0.25838   3.07418   2.93088
H     3.21825  -1.86671   1.17945
H     1.91029  -2.93345  -0.95277
