39
Coordinates from ORCA-job reaction4-IEIP_ts_guess_scan_10-0_orca E -1288.399170656641
  Ir      0.632702     -0.701714      0.403066
  C       0.109269     -2.809682      0.324250
  C       0.082153     -2.349876      1.686389
  C       2.230666     -2.087225      0.877139
  C       1.414619     -2.639723     -0.178159
  C       1.409862     -1.939359      2.017399
  N      -1.046818      0.153046     -0.532489
  C      -2.305232      0.435396      0.174564
  C      -3.095440      1.588303     -0.425334
  H      -3.912586      1.843696      0.247880
  H      -3.550660      1.336552     -1.384224
  H      -2.483064      2.481853     -0.548555
  C      -3.138113     -0.839159      0.253001
  H      -1.999772      0.714456      1.183846
  H      -4.035799     -0.655180      0.841474
  H      -3.450887     -1.169105     -0.738476
  H      -2.594713     -1.652386      0.731793
  C      -0.891449      0.399010     -1.773174
  C       0.440206      0.180652     -2.260023
  H      -1.688558      0.783006     -2.402173
  C       1.499676      0.241063     -1.350396
  C       2.719829     -0.108167     -2.009723
  S       0.912149     -0.287998     -3.818256
  C       2.551591     -0.415500     -3.322417
  H       1.507032      1.204028     -0.641197
  H       3.689045     -0.076788     -1.533563
  H       3.307471     -0.686308     -4.043932
  H      -0.731382     -3.203749     -0.228534
  H      -0.758612     -2.385383      2.362699
  H       1.716979     -1.514993      2.962721
  O       1.392432      2.458328      0.173418
  O       0.548128      0.962084      1.592240
  C       0.950872      2.143233      1.279111
  C       0.880676      3.152248      2.391309
  H       0.848965      4.163323      1.994645
  H       1.777851      3.063102      3.006855
  H       0.024534      2.977497      3.039294
  H       3.285836     -1.867033      0.821551
  H       1.749908     -2.892358     -1.173277
39
Coordinates from ORCA-job reaction4-IEIP_ts_guess_scan_10-0_orca E -1288.399282497936
  Ir      0.631685     -0.696735      0.399573
  C       0.112036     -2.807848      0.324502
  C       0.084296     -2.348593      1.686700
  C       2.231273     -2.080500      0.877452
  C       1.416972     -2.635736     -0.177671
  C       1.409730     -1.933512      2.016978
  N      -1.053195      0.152816     -0.533907
  C      -2.310967      0.435537      0.174276
  C      -3.103266      1.585398     -0.428677
  H      -3.920378      1.841548      0.244271
  H      -3.558635      1.330016     -1.386557
  H      -2.492417      2.479574     -0.555013
  C      -3.141840     -0.839988      0.257327
  H      -2.004905      0.718101      1.182388
  H      -4.038936     -0.655749      0.846602
  H      -3.455597     -1.173122     -0.732781
  H      -2.596496     -1.651086      0.737509
  C      -0.897270      0.394783     -1.780141
  C       0.437811      0.177852     -2.269653
  H      -1.695417      0.775168     -2.409973
  C       1.496303      0.240455     -1.358043
  C       2.718459     -0.107380     -2.015434
  S       0.912535     -0.295248     -3.825397
  C       2.552208     -0.418687     -3.327312
  H       1.505589      1.218096     -0.666907
  H       3.687343     -0.070926     -1.538795
  H       3.309507     -0.689588     -4.047205
  H      -0.727613     -3.204407     -0.228069
  H      -0.756146     -2.386201      2.363236
  H       1.715588     -1.507980      2.962175
  O       1.452957      2.439965      0.201577
  O       0.537322      0.966072      1.593303
  C       0.969089      2.139243      1.293514
  C       0.883864      3.151996      2.401211
  H       0.884392      4.162595      2.002056
  H       1.759417      3.046743      3.044704
  H       0.004593      2.995443      3.022248
  H       3.286280     -1.859447      0.822872
  H       1.753198     -2.889479     -1.172198
39
Coordinates from ORCA-job reaction4-IEIP_ts_guess_scan_10-0_orca E -1288.398605402172
  Ir      0.640430     -0.705583      0.403445
  C       0.108784     -2.817461      0.322413
  C       0.083047     -2.368109      1.687682
  C       2.229847     -2.103208      0.880921
  C       1.414713     -2.649491     -0.177925
  C       1.407219     -1.957971      2.019629
  N      -1.043793      0.159020     -0.519411
  C      -2.300675      0.440828      0.190286
  C      -3.085456      1.600784     -0.403097
  H      -3.903537      1.853694      0.269887
  H      -3.538770      1.357649     -1.365178
  H      -2.470175      2.493460     -0.518067
  C      -3.137992     -0.831326      0.257764
  H      -1.995144      0.711057      1.201890
  H      -4.034816     -0.649296      0.848116
  H      -3.452320     -1.151685     -0.736382
  H      -2.597114     -1.650461      0.729258
  C      -0.880079      0.415803     -1.770713
  C       0.460128      0.197070     -2.267722
  H      -1.675347      0.807607     -2.397040
  C       1.517311      0.228210     -1.349898
  C       2.737897     -0.126923     -2.008659
  S       0.934813     -0.260846     -3.827205
  C       2.571935     -0.416216     -3.325163
  H       1.554275      1.220382     -0.672888
  H       3.705913     -0.108001     -1.528955
  H       3.328053     -0.686753     -4.046280
  H      -0.732204     -3.207629     -0.232731
  H      -0.757567     -2.406401      2.363839
  H       1.713830     -1.538907      2.967446
  O       1.249608      2.450106      0.130204
  O       0.547807      0.951116      1.608171
  C       0.892749      2.140188      1.268184
  C       0.857723      3.160633      2.371252
  H       0.767091      4.164901      1.966438
  H       1.793866      3.109112      2.930376
  H       0.049806      2.965768      3.073016
  H       3.286575     -1.889856      0.830589
  H       1.750942     -2.902075     -1.172748
39
Coordinates from ORCA-job reaction4-IEIP_ts_guess_scan_10-0_orca E -1288.399410401824
  Ir      0.632943     -0.701742      0.402202
  C       0.105116     -2.812212      0.330613
  C       0.079558     -2.354071      1.692980
  C       2.226461     -2.091676      0.882665
  C       1.410568     -2.644841     -0.172099
  C       1.405055     -1.941661      2.022038
  N      -1.049614      0.153056     -0.528649
  C      -2.307973      0.433174      0.178262
  C      -3.098272      1.586073     -0.421483
  H      -3.917354      1.839241      0.250243
  H      -3.550762      1.335205     -1.381921
  H      -2.486893      2.480679     -0.541852
  C      -3.139398     -0.842520      0.253438
  H      -2.003536      0.710643      1.188216
  H      -4.037188     -0.661031      0.842534
  H      -3.451957     -1.170353     -0.738794
  H      -2.594814     -1.656239      0.730056
  C      -0.891683      0.402520     -1.774714
  C       0.444134      0.187726     -2.267925
  H      -1.689404      0.788024     -2.401796
  C       1.502364      0.234088     -1.353768
  C       2.724656     -0.110435     -2.013898
  S       0.919113     -0.269292     -3.827687
  C       2.558879     -0.403067     -3.329970
  H       1.519145      1.213354     -0.662098
  H       3.693067     -0.082783     -1.535722
  H       3.316002     -0.666695     -4.052771
  H      -0.735971     -3.206168     -0.221610
  H      -0.760769     -2.388845      2.369761
  H       1.712237     -1.516683      2.967044
  O       1.397342      2.454220      0.171818
  O       0.547912      0.963510      1.592550
  C       0.952744      2.143126      1.278333
  C       0.882595      3.155521      2.386965
  H       0.852734      4.165408      1.987157
  H       1.778793      3.066906      3.003924
  H       0.025201      2.983718      3.033987
  H       3.282507     -1.875520      0.828978
  H       1.745828     -2.901167     -1.166267
39
Coordinates from ORCA-job reaction4-IEIP_ts_guess_scan_10-0_orca E -1288.399428837880
  Ir      0.632934     -0.703324      0.402627
  C       0.105863     -2.813924      0.332712
  C       0.078932     -2.355490      1.694799
  C       2.226399     -2.092168      0.885796
  C       1.411725     -2.646374     -0.169179
  C       1.403724     -1.942048      2.024401
  N      -1.049029      0.151349     -0.529295
  C      -2.307077      0.432405      0.177874
  C      -3.096682      1.586479     -0.420577
  H      -3.915128      1.839978      0.251786
  H      -3.550025      1.336690     -1.380867
  H      -2.484516      2.480584     -0.540686
  C      -3.140041     -0.842349      0.253059
  H      -2.001896      0.709067      1.187895
  H      -4.037284     -0.659996      0.842738
  H      -3.453527     -1.169391     -0.739132
  H      -2.596188     -1.656855      0.729062
  C      -0.891541      0.401780     -1.774691
  C       0.443518      0.187922     -2.268797
  H      -1.689433      0.788322     -2.400853
  C       1.501640      0.231469     -1.354249
  C       2.724035     -0.110081     -2.015750
  S       0.918934     -0.259571     -3.830870
  C       2.558232     -0.398493     -3.332746
  H       1.519186      1.213042     -0.664709
  H       3.692272     -0.085217     -1.537124
  H       3.315169     -0.660344     -4.056382
  H      -0.734564     -3.208510     -0.220038
  H      -0.762047     -2.389905      2.370771
  H       1.709923     -1.516253      2.969362
  O       1.399773      2.452759      0.171259
  O       0.547241      0.963283      1.591014
  C       0.953485      2.142097      1.277211
  C       0.881804      3.155412      2.385054
  H       0.852850      4.165050      1.984540
  H       1.777013      3.066989      3.003503
  H       0.023341      2.984265      3.030857
  H       3.282507     -1.876036      0.833229
  H       1.747848     -2.903423     -1.162863
39
Coordinates from ORCA-job reaction4-IEIP_ts_guess_scan_10-0_orca E -1288.399456694518
  Ir      0.631761     -0.709254      0.405434
  C       0.104735     -2.819626      0.342433
  C       0.073470     -2.359464      1.703404
  C       2.223294     -2.095862      0.899244
  C       1.412349     -2.653326     -0.156374
  C       1.396215     -1.943625      2.034918
  N      -1.047759      0.146384     -0.530771
  C      -2.305916      0.427756      0.176460
  C      -3.094110      1.585314     -0.417231
  H      -3.911721      1.837601      0.256561
  H      -3.548587      1.339760     -1.378032
  H      -2.480623      2.478924     -0.534409
  C      -3.141852     -0.845377      0.248482
  H      -2.000127      0.700695      1.187424
  H      -4.038202     -0.662692      0.839419
  H      -3.456768     -1.168587     -0.744499
  H      -2.599461     -1.662482      0.721564
  C      -0.890867      0.401217     -1.774450
  C       0.442003      0.189568     -2.271642
  H      -1.689467      0.790397     -2.398050
  C       1.499184      0.220373     -1.354814
  C       2.722655     -0.108484     -2.021197
  S       0.918505     -0.232711     -3.839384
  C       2.558770     -0.371663     -3.343675
  H       1.519371      1.209026     -0.671264
  H       3.690193     -0.091852     -1.540902
  H       3.316435     -0.618370     -4.071843
  H      -0.733797     -3.215698     -0.212116
  H      -0.769945     -2.391231      2.376398
  H       1.699354     -1.514682      2.979465
  O       1.404785      2.449411      0.164389
  O       0.547555      0.964189      1.585552
  C       0.956085      2.140622      1.270173
  C       0.887607      3.156577      2.376255
  H       0.860874      4.165580      1.974004
  H       1.783032      3.067132      2.994307
  H       0.029171      2.988635      3.022973
  H       3.279870     -1.881152      0.850714
  H       1.751297     -2.913833     -1.148179
39
Coordinates from ORCA-job reaction4-IEIP_ts_guess_scan_10-0_orca E -1288.399461265300
  Ir      0.631347     -0.709598      0.406194
  C       0.103214     -2.819393      0.343689
  C       0.071081     -2.358889      1.704602
  C       2.221756     -2.096582      0.902251
  C       1.411449     -2.654038     -0.153918
  C       1.393697     -1.943380      2.037115
  N      -1.047834      0.146662     -0.529999
  C      -2.306583      0.425380      0.177288
  C      -3.095342      1.583367     -0.414769
  H      -3.913724      1.833376      0.258935
  H      -3.548768      1.339372     -1.376498
  H      -2.482684      2.477851     -0.529620
  C      -3.141067     -0.848849      0.245547
  H      -2.002022      0.696470      1.189035
  H      -4.038019     -0.668616      0.836282
  H      -3.454915     -1.169969     -0.748466
  H      -2.598020     -1.666591      0.716915
  C      -0.890779      0.404060     -1.773684
  C       0.442212      0.193181     -2.271790
  H      -1.689555      0.794359     -2.396469
  C       1.499285      0.218529     -1.354591
  C       2.722560     -0.109483     -2.021945
  S       0.919374     -0.219702     -3.841820
  C       2.558394     -0.369088     -3.345072
  H       1.521201      1.206382     -0.669347
  H       3.689937     -0.097436     -1.541112
  H       3.315631     -0.615787     -4.073681
  H      -0.735000     -3.215216     -0.211564
  H      -0.773037     -2.389730      2.376748
  H       1.696251     -1.513990      2.981657
  O       1.407665      2.449792      0.161941
  O       0.549710      0.965624      1.584613
  C       0.959677      2.141459      1.268415
  C       0.890697      3.158697      2.373230
  H       0.863582      4.167214      1.969805
  H       1.786121      3.070269      2.991379
  H       0.032290      2.991155      3.020064
  H       3.278515     -1.882593      0.854738
  H       1.751071     -2.915081     -1.145358
39
Coordinates from ORCA-job reaction4-IEIP_ts_guess_scan_10-0_orca E -1288.399465053487
  Ir      0.631497     -0.709529      0.406559
  C       0.103314     -2.818978      0.343012
  C       0.069657     -2.358381      1.703981
  C       2.221406     -2.096503      0.904350
  C       1.412216     -2.653760     -0.152849
  C       1.392070     -1.943143      2.038229
  N      -1.047511      0.146866     -0.529583
  C      -2.306269      0.424745      0.178085
  C      -3.095089      1.583107     -0.413182
  H      -3.913518      1.832451      0.260725
  H      -3.548421      1.339846     -1.375145
  H      -2.482556      2.477754     -0.527320
  C      -3.140499     -0.849713      0.244801
  H      -2.001998      0.695086      1.190102
  H      -4.037670     -0.670306      0.835474
  H      -3.454023     -1.169864     -0.749628
  H      -2.597458     -1.667905      0.715369
  C      -0.890763      0.404816     -1.773412
  C       0.442139      0.193832     -2.271930
  H      -1.689723      0.795337     -2.395797
  C       1.499314      0.217212     -1.355016
  C       2.722306     -0.110676     -2.022753
  S       0.919003     -0.217527     -3.842608
  C       2.557924     -0.368029     -3.346331
  H       1.521941      1.204267     -0.668475
  H       3.689746     -0.099975     -1.542004
  H       3.315025     -0.613851     -4.075372
  H      -0.734199     -3.214752     -0.213320
  H      -0.775302     -2.389073      2.375091
  H       1.693601     -1.513720      2.983080
  O       1.407970      2.448756      0.161138
  O       0.550003      0.965708      1.584744
  C       0.959363      2.141586      1.267742
  C       0.891079      3.159398      2.371978
  H       0.863827      4.167673      1.967963
  H       1.786829      3.071239      2.989684
  H       0.032987      2.992276      3.019313
  H       3.278221     -1.882524      0.858027
  H       1.752932     -2.914556     -1.143982
