39
Generated by autodE on: 2023-08-13. E = -1288.399559 Ha
Ir    0.59994  -0.71449   0.44061
C     0.04850  -2.80053   0.34217
C     0.12127  -2.34620   1.70855
C     2.21129  -2.12341   0.76530
C     1.31642  -2.64051  -0.24548
C     1.48439  -1.97924   1.96095
N    -1.04635   0.16970  -0.52482
C    -2.31385   0.49322   0.14787
C    -3.12305   1.56524  -0.56408
H    -3.94986   1.86616   0.07785
H    -3.56704   1.21489  -1.49730
H    -2.53043   2.45755  -0.76816
C    -3.12296  -0.78203   0.35094
H    -2.01723   0.87668   1.12541
H    -4.03330  -0.55238   0.90259
H    -3.41405  -1.22312  -0.60327
H    -2.57564  -1.52729   0.92636
C    -0.85265   0.37969  -1.76903
C     0.49659   0.15388  -2.23855
H    -1.63470   0.74229  -2.42977
C     1.59344   0.46007  -1.43858
C     2.80135   0.04839  -2.07414
S     0.93152  -0.58461  -3.71091
C     2.59618  -0.52303  -3.28998
H     1.53020   1.35307  -0.67599
H     3.78482   0.22161  -1.66203
H     3.33578  -0.89289  -3.98393
H    -0.83737  -3.16693  -0.15646
H    -0.67189  -2.37710   2.44093
H     1.86508  -1.57923   2.88977
O     1.31090   2.47093   0.25535
O     0.53405   0.91697   1.65410
C     0.90617   2.11883   1.35997
C     0.84233   3.08825   2.50742
H     0.80244   4.11148   2.14408
H     1.74463   2.98339   3.11307
H    -0.00694   2.88982   3.15798
H     3.25816  -1.89701   0.62851
H     1.58122  -2.87295  -1.26658
