39
Coordinates from ORCA-job reaction4-IEIP_ts_guess_scan_7-2_orca E -1288.400274539816
  Ir      0.612374     -0.703598      0.411445
  C       0.068968     -2.796765      0.328445
  C       0.129156     -2.340325      1.693081
  C       2.225373     -2.105069      0.761813
  C       1.340915     -2.633758     -0.251627
  C       1.485267     -1.958328      1.950830
  N      -1.054593      0.167489     -0.530895
  C      -2.317765      0.477840      0.155590
  C      -3.121836      1.577026     -0.520210
  H      -3.944255      1.864488      0.133450
  H      -3.571562      1.258063     -1.461817
  H      -2.522562      2.470125     -0.699535
  C      -3.133415     -0.799121      0.319860
  H      -2.016250      0.827696      1.144016
  H      -4.039382     -0.583738      0.884351
  H      -3.431851     -1.206010     -0.647167
  H      -2.585844     -1.566267      0.865432
  C      -0.872575      0.383467     -1.774868
  C       0.475500      0.155088     -2.237288
  H      -1.656017      0.750116     -2.431411
  C       1.551926      0.386558     -1.382656
  C       2.771264     -0.013835     -2.006434
  S       0.938559     -0.513989     -3.729427
  C       2.591378     -0.512495     -3.257844
  H       1.502253      1.305928     -0.645224
  H       3.745384      0.116134     -1.557610
  H       3.343591     -0.859060     -3.950356
  H      -0.810369     -3.171587     -0.175486
  H      -0.669331     -2.372087      2.419386
  H       1.856002     -1.549783      2.880015
  O       1.322943      2.481614      0.221213
  O       0.539584      0.934711      1.623036
  C       0.916014      2.133004      1.327299
  C       0.856563      3.107355      2.470835
  H       0.819675      4.129496      2.104151
  H       1.759155      3.001272      3.075843
  H       0.007139      2.913593      3.122595
  H       3.274015     -1.880913      0.636288
  H       1.613978     -2.875147     -1.268380
39
Coordinates from ORCA-job reaction4-IEIP_ts_guess_scan_7-2_orca E -1288.398786645932
  Ir      0.616807     -0.686851      0.403071
  C       0.093848     -2.785970      0.294037
  C       0.140717     -2.346532      1.664432
  C       2.240366     -2.078333      0.749881
  C       1.367981     -2.603864     -0.275514
  C       1.490582     -1.952658      1.935404
  N      -1.060907      0.176625     -0.535060
  C      -2.319812      0.494087      0.154775
  C      -3.130024      1.581017     -0.533322
  H      -3.949856      1.876418      0.120031
  H      -3.583485      1.246590     -1.467764
  H      -2.533838      2.472695     -0.729282
  C      -3.130887     -0.782423      0.342933
  H      -2.012845      0.859209      1.135989
  H      -4.033686     -0.561261      0.910236
  H      -3.434536     -1.204099     -0.616091
  H      -2.577421     -1.540038      0.895900
  C      -0.887618      0.370836     -1.784775
  C       0.459564      0.134408     -2.245207
  H      -1.675376      0.720673     -2.445267
  C       1.533620      0.408881     -1.399378
  C       2.753404     -0.018953     -2.005797
  S       0.923308     -0.601872     -3.704669
  C       2.574993     -0.579614     -3.230589
  H       1.488367      1.392164     -0.737233
  H       3.727910      0.139984     -1.567357
  H       3.328433     -0.955748     -3.906021
  H      -0.778259     -3.163804     -0.220076
  H      -0.661891     -2.395857      2.385109
  H       1.850909     -1.551578      2.871888
  O       1.423975      2.447661      0.285939
  O       0.514000      0.932760      1.636427
  C       0.940701      2.118476      1.367690
  C       0.844052      3.096984      2.504943
  H       0.860404      4.118974      2.136236
  H       1.705703      2.964577      3.162153
  H      -0.047914      2.930881      3.105364
  H       3.287794     -1.843621      0.634555
  H       1.650286     -2.831635     -1.292851
39
Coordinates from ORCA-job reaction4-IEIP_ts_guess_scan_7-2_orca E -1288.400414486086
  Ir      0.616384     -0.704260      0.416217
  C       0.073796     -2.800221      0.329903
  C       0.126529     -2.348349      1.695936
  C       2.227349     -2.107110      0.775499
  C       1.348955     -2.635150     -0.243391
  C       1.479926     -1.963297      1.960825
  N      -1.051683      0.168327     -0.527849
  C      -2.313564      0.480398      0.158327
  C      -3.115199      1.579789     -0.519966
  H      -3.938642      1.868853      0.131668
  H      -3.563057      1.260129     -1.462264
  H      -2.514623      2.472055     -0.699153
  C      -3.129963     -0.795952      0.322810
  H      -2.011605      0.830280      1.146608
  H      -4.035523     -0.580048      0.887716
  H      -3.429017     -1.202570     -0.644131
  H      -2.582273     -1.563353      0.868017
  C      -0.870796      0.388610     -1.773352
  C       0.476535      0.161264     -2.243322
  H      -1.655224      0.760924     -2.425447
  C       1.556053      0.373448     -1.385329
  C       2.770927     -0.024079     -2.022715
  S       0.929920     -0.499213     -3.741817
  C       2.584483     -0.508881     -3.277723
  H       1.524727      1.312547     -0.659300
  H       3.748070      0.100849     -1.579143
  H       3.332666     -0.849121     -3.977574
  H      -0.802381     -3.175434     -0.179193
  H      -0.675286     -2.383796      2.418267
  H       1.845054     -1.556294      2.892878
  O       1.309850      2.469882      0.223597
  O       0.530771      0.932183      1.632688
  C       0.907629      2.128130      1.334353
  C       0.845055      3.110000      2.470962
  H       0.805009      4.129641      2.097587
  H       1.747845      3.010723      3.076740
  H      -0.003921      2.917709      3.123577
  H       3.276776     -1.883400      0.656873
  H       1.627820     -2.876023     -1.258637
39
Coordinates from ORCA-job reaction4-IEIP_ts_guess_scan_7-2_orca E -1288.399216830068
  Ir      0.602049     -0.708664      0.419505
  C       0.048463     -2.802737      0.376878
  C       0.104456     -2.323521      1.733059
  C       2.205680     -2.111607      0.806518
  C       1.323828     -2.656244     -0.200342
  C       1.459697     -1.939882      1.988991
  N      -1.065372      0.148782     -0.541026
  C      -2.331858      0.452213      0.141737
  C      -3.141211      1.545592     -0.537243
  H      -3.967750      1.828055      0.113397
  H      -3.585580      1.222779     -1.480074
  H      -2.547355      2.442558     -0.715332
  C      -3.139327     -0.830063      0.305039
  H      -2.034962      0.804339      1.130704
  H      -4.047440     -0.620793      0.868396
  H      -3.433688     -1.238968     -0.662370
  H      -2.586887     -1.593310      0.851185
  C      -0.886262      0.371296     -1.786099
  C       0.463060      0.169862     -2.259281
  H      -1.673641      0.743373     -2.434561
  C       1.536338      0.359829     -1.390309
  C       2.761247      0.021853     -2.042062
  S       0.931686     -0.406914     -3.786808
  C       2.586657     -0.401411     -3.321216
  H       1.475013      1.246614     -0.606804
  H       3.734381      0.139536     -1.587641
  H       3.342553     -0.692148     -4.035018
  H      -0.830018     -3.183656     -0.123948
  H      -0.697080     -2.339894      2.456376
  H       1.827500     -1.515615      2.912260
  O       1.549150      2.423804      0.272872
  O       0.527000      0.954595      1.605221
  C       1.007304      2.120674      1.335255
  C       0.910345      3.113137      2.459911
  H       0.981337      4.129998      2.083648
  H       1.741883      2.952471      3.148857
  H      -0.008598      2.988692      3.028928
  H       3.256242     -1.895921      0.682747
  H       1.600532     -2.919515     -1.210611
39
Coordinates from ORCA-job reaction4-IEIP_ts_guess_scan_7-2_orca E -1288.400480987357
  Ir      0.610458     -0.701212      0.418154
  C       0.065237     -2.797085      0.349128
  C       0.116081     -2.334760      1.711296
  C       2.218627     -2.102643      0.792115
  C       1.341470     -2.638104     -0.223646
  C       1.468977     -1.948379      1.974901
  N      -1.055603      0.164443     -0.531891
  C      -2.322296      0.464181      0.152061
  C      -3.130153      1.562967     -0.519967
  H      -3.957030      1.841581      0.131892
  H      -3.573963      1.247069     -1.465408
  H      -2.535491      2.460696     -0.691352
  C      -3.131429     -0.818269      0.305781
  H      -2.025776      0.809131      1.143719
  H      -4.039794     -0.611921      0.869825
  H      -3.425442     -1.220108     -0.664693
  H      -2.580334     -1.585901      0.847051
  C      -0.873506      0.395031     -1.775439
  C       0.472776      0.176757     -2.250684
  H      -1.659611      0.769175     -2.424233
  C       1.552929      0.365098     -1.388703
  C       2.766323     -0.026285     -2.031913
  S       0.925767     -0.437757     -3.768165
  C       2.578862     -0.477340     -3.299378
  H       1.528260      1.290857     -0.644460
  H       3.743112      0.077344     -1.581989
  H       3.325766     -0.807418     -4.005402
  H      -0.810501     -3.175393     -0.158394
  H      -0.686999     -2.363445      2.432485
  H       1.832882     -1.533978      2.904172
  O       1.401449      2.459240      0.240923
  O       0.524876      0.946129      1.622014
  C       0.945015      2.130445      1.335059
  C       0.873276      3.115092      2.468440
  H       0.877647      4.135029      2.093852
  H       1.750839      2.988778      3.105437
  H      -0.003617      2.949506      3.090759
  H       3.268662     -1.881520      0.673772
  H       1.621626     -2.887841     -1.236381
39
Coordinates from ORCA-job reaction4-IEIP_ts_guess_scan_7-2_orca E -1288.400496286730
  Ir      0.615599     -0.708176      0.420235
  C       0.063950     -2.802686      0.349586
  C       0.111726     -2.341500      1.712037
  C       2.217969     -2.115163      0.799610
  C       1.342451     -2.647379     -0.219210
  C       1.464717     -1.958794      1.979891
  N      -1.049826      0.163398     -0.531814
  C      -2.314492      0.468501      0.153758
  C      -3.119296      1.570168     -0.517191
  H      -3.943904      1.852086      0.136102
  H      -3.566067      1.255681     -1.461689
  H      -2.521622      2.465625     -0.689887
  C      -3.129045     -0.810330      0.309487
  H      -2.015126      0.812930      1.144805
  H      -4.035861     -0.599528      0.874385
  H      -3.425941     -1.211703     -0.660291
  H      -2.580798     -1.579875      0.850766
  C      -0.870671      0.388842     -1.776844
  C       0.474226      0.169378     -2.251917
  H      -1.657740      0.761118     -2.425613
  C       1.551638      0.361413     -1.388027
  C       2.768005     -0.016723     -2.033572
  S       0.928357     -0.457753     -3.763556
  C       2.583946     -0.464365     -3.302997
  H       1.522788      1.299633     -0.656496
  H       3.744485      0.099860     -1.586203
  H       3.333713     -0.780807     -4.012202
  H      -0.811180     -3.178214     -0.161019
  H      -0.693776     -2.368172      2.430590
  H       1.826854     -1.545798      2.910478
  O       1.347093      2.466528      0.222474
  O       0.531504      0.938738      1.625083
  C       0.925420      2.129215      1.328228
  C       0.867394      3.112747      2.463264
  H       0.844459      4.132626      2.089193
  H       1.763763      3.001227      3.076391
  H       0.010428      2.932253      3.108774
  H       3.269222     -1.897894      0.685185
  H       1.625009     -2.897913     -1.231052
39
Coordinates from ORCA-job reaction4-IEIP_ts_guess_scan_7-2_orca E -1288.400534495276
  Ir      0.614989     -0.707459      0.420608
  C       0.064879     -2.802088      0.350556
  C       0.111101     -2.340465      1.712798
  C       2.218016     -2.112845      0.801934
  C       1.343782     -2.646108     -0.217329
  C       1.463453     -1.956539      1.981502
  N      -1.049890      0.162024     -0.531766
  C      -2.314787      0.465407      0.154299
  C      -3.119473      1.568799     -0.513954
  H      -3.944031      1.849171      0.140067
  H      -3.566329      1.256676     -1.459192
  H      -2.521711      2.464612     -0.684474
  C      -3.129727     -0.813615      0.306726
  H      -2.015725      0.807449      1.146253
  H      -4.036728     -0.603892      0.871727
  H      -3.426324     -1.212660     -0.664106
  H      -2.581965     -1.584591      0.846427
  C      -0.871272      0.390013     -1.776376
  C       0.473402      0.173768     -2.253513
  H      -1.659090      0.763547     -2.423510
  C       1.551244      0.359694     -1.388981
  C       2.767075     -0.020768     -2.033968
  S       0.928897     -0.432255     -3.773086
  C       2.582170     -0.464956     -3.304583
  H       1.523709      1.294937     -0.653103
  H       3.743161      0.085089     -1.583085
  H       3.330978     -0.786488     -4.012524
  H      -0.809521     -3.178390     -0.160736
  H      -0.695077     -2.367186      2.430576
  H       1.824462     -1.542762      2.912186
  O       1.356480      2.465274      0.222937
  O       0.531301      0.940401      1.623622
  C       0.928964      2.129566      1.327103
  C       0.868035      3.114718      2.460592
  H       0.848408      4.134172      2.085197
  H       1.761768      3.002347      3.077417
  H       0.008164      2.936506      3.102878
  H       3.269269     -1.895030      0.688465
  H       1.627312     -2.896885     -1.228844
39
Coordinates from ORCA-job reaction4-IEIP_ts_guess_scan_7-2_orca E -1288.400550126268
  Ir      0.613160     -0.706381      0.423485
  C       0.065544     -2.801296      0.352204
  C       0.108351     -2.339945      1.714579
  C       2.217041     -2.109692      0.808038
  C       1.345566     -2.643875     -0.213034
  C       1.459580     -1.954385      1.986036
  N      -1.049971      0.160792     -0.530399
  C      -2.315702      0.461902      0.155201
  C      -3.119591      1.567410     -0.510585
  H      -3.944695      1.845964      0.143527
  H      -3.565634      1.258117     -1.457129
  H      -2.521493      2.463594     -0.677968
  C      -3.130974     -0.817507      0.302711
  H      -2.017922      0.800945      1.148530
  H      -4.038712     -0.609383      0.867113
  H      -3.426299     -1.213605     -0.669716
  H      -2.584050     -1.590246      0.840787
  C      -0.871332      0.391157     -1.774690
  C       0.472511      0.175404     -2.254788
  H      -1.660206      0.764575     -2.420602
  C       1.551903      0.352123     -1.389891
  C       2.766560     -0.026089     -2.038196
  S       0.926103     -0.418890     -3.779379
  C       2.579944     -0.456656     -3.313313
  H       1.526782      1.284556     -0.649255
  H       3.743045      0.072580     -1.586616
  H       3.327579     -0.773078     -4.024796
  H      -0.807319     -3.178462     -0.161098
  H      -0.699412     -2.367328      2.430529
  H       1.818131     -1.540139      2.917474
  O       1.374881      2.457289      0.226375
  O       0.529279      0.942336      1.624653
  C       0.935852      2.128099      1.328109
  C       0.870143      3.118077      2.457205
  H       0.858579      4.136139      2.077754
  H       1.758211      3.003801      3.081828
  H       0.004136      2.946488      3.093020
  H       3.268361     -1.890915      0.697016
  H       1.631440     -2.894284     -1.223979
39
Coordinates from ORCA-job reaction4-IEIP_ts_guess_scan_7-2_orca E -1288.400561784335
  Ir      0.613576     -0.707755      0.426287
  C       0.065476     -2.802500      0.354673
  C       0.103856     -2.340691      1.716957
  C       2.215820     -2.111332      0.817259
  C       1.347508     -2.645853     -0.206340
  C       1.454159     -1.955124      1.992561
  N      -1.048548      0.159239     -0.530032
  C      -2.314795      0.457956      0.156024
  C      -3.117539      1.567386     -0.504778
  H      -3.942552      1.843537      0.150472
  H      -3.563651      1.262944     -1.452835
  H      -2.518572      2.463775     -0.667831
  C      -3.131301     -0.821473      0.296563
  H      -2.017807      0.791989      1.151261
  H      -4.039448     -0.615281      0.861026
  H      -3.425956     -1.212648     -0.678055
  H      -2.585629     -1.597360      0.831385
  C      -0.871371      0.391542     -1.774392
  C       0.471194      0.178293     -2.257503
  H      -1.662076      0.764139     -2.418510
  C       1.550411      0.346187     -1.390728
  C       2.765028     -0.028011     -2.040811
  S       0.925157     -0.402486     -3.786952
  C       2.578455     -0.446705     -3.320109
  H       1.526134      1.279643     -0.649459
  H       3.741297      0.064665     -1.587574
  H       3.326083     -0.757772     -4.033949
  H      -0.805665     -3.179721     -0.161531
  H      -0.706420     -2.367192      2.430087
  H       1.809711     -1.540350      2.924931
  O       1.375682      2.455425      0.222322
  O       0.531753      0.943906      1.625400
  C       0.937143      2.128873      1.325278
  C       0.873841      3.122010      2.451720
  H       0.860643      4.139014      2.069545
  H       1.763760      3.009926      3.074110
  H       0.009728      2.951553      3.090398
  H       3.267728     -1.893508      0.710050
  H       1.636560     -2.897050     -1.216181
39
Coordinates from ORCA-job reaction4-IEIP_ts_guess_scan_7-2_orca E -1288.400569154749
  Ir      0.614753     -0.710113      0.429478
  C       0.067064     -2.804845      0.355250
  C       0.097971     -2.343198      1.717774
  C       2.215047     -2.113544      0.829645
  C       1.352210     -2.648158     -0.198547
  C       1.446594     -1.957325      2.000645
  N      -1.045601      0.156849     -0.528861
  C      -2.311490      0.454583      0.158772
  C      -3.111336      1.570505     -0.494809
  H      -3.935053      1.845154      0.162697
  H      -3.559013      1.273070     -1.444308
  H      -2.509635      2.465902     -0.652961
  C      -3.131545     -0.823526      0.290796
  H      -2.014170      0.781526      1.156268
  H      -4.039413     -0.618546      0.856184
  H      -3.426809     -1.207688     -0.686423
  H      -2.588243     -1.604413      0.820679
  C      -0.870988      0.389947     -1.773625
  C       0.469760      0.179055     -2.260423
  H      -1.664108      0.761457     -2.415385
  C       1.549122      0.338007     -1.392170
  C       2.763641     -0.029513     -2.045385
  S       0.923663     -0.387268     -3.795163
  C       2.576485     -0.436652     -3.328653
  H       1.525075      1.273954     -0.651485
  H       3.740051      0.058674     -1.591627
  H       3.323966     -0.740880     -4.045593
  H      -0.800976     -3.182336     -0.165941
  H      -0.716347     -2.369411      2.426298
  H       1.797001     -1.542342      2.934883
  O       1.371496      2.452873      0.215501
  O       0.534917      0.943634      1.625787
  C       0.937750      2.128000      1.321140
  C       0.872807      3.125846      2.443242
  H       0.852821      4.141064      2.056653
  H       1.765626      3.021215      3.062754
  H       0.011945      2.953453      3.085756
  H       3.267715     -1.896466      0.728733
  H       1.646615     -2.899351     -1.206837
39
Coordinates from ORCA-job reaction4-IEIP_ts_guess_scan_7-2_orca E -1288.400569913151
  Ir      0.614748     -0.709982      0.429997
  C       0.068819     -2.805224      0.354283
  C       0.096416     -2.343544      1.716953
  C       2.215334     -2.112276      0.833604
  C       1.355069     -2.647481     -0.196460
  C       1.444130     -1.956824      2.002897
  N      -1.045640      0.156251     -0.528517
  C      -2.311546      0.453378      0.159442
  C      -3.110273      1.571406     -0.491955
  H      -3.933785      1.845549      0.166013
  H      -3.558089      1.276228     -1.442079
  H      -2.507572      2.466432     -0.648325
  C      -3.132465     -0.824532      0.288143
  H      -2.014412      0.777817      1.157795
  H      -4.040311     -0.620484      0.853917
  H      -3.427804     -1.206065     -0.690084
  H      -2.589666     -1.607129      0.816014
  C      -0.871669      0.389214     -1.773435
  C       0.468795      0.178856     -2.260829
  H      -1.665457      0.760068     -2.414762
  C       1.548432      0.336957     -1.392680
  C       2.762726     -0.030370     -2.046172
  S       0.922582     -0.386199     -3.796181
  C       2.575286     -0.435960     -3.329964
  H       1.524557      1.273358     -0.652206
  H       3.739270      0.057209     -1.592585
  H       3.322654     -0.739539     -4.047307
  H      -0.797680     -3.183542     -0.168855
  H      -0.719451     -2.370400      2.423674
  H       1.792155     -1.541666      2.937951
  O       1.369682      2.452996      0.213572
  O       0.534720      0.944327      1.625434
  C       0.935310      2.129076      1.319244
  C       0.874788      3.126537      2.441933
  H       0.854229      4.141869      2.055677
  H       1.769606      3.021206      3.058453
  H       0.015947      2.954461      3.087199
  H       3.268108     -1.894618      0.735133
  H       1.651827     -2.898167     -1.204193
39
Coordinates from ORCA-job reaction4-IEIP_ts_guess_scan_7-2_orca E -1288.400570876237
  Ir      0.615083     -0.709714      0.429626
  C       0.070355     -2.805438      0.352908
  C       0.096020     -2.343569      1.715665
  C       2.215990     -2.111316      0.835192
  C       1.357237     -2.646993     -0.195922
  C       1.443199     -1.956445      2.003493
  N      -1.046123      0.156356     -0.528086
  C      -2.312054      0.452725      0.160131
  C      -3.109897      1.572377     -0.489573
  H      -3.933448      1.845958      0.168574
  H      -3.557513      1.279011     -1.440346
  H      -2.506456      2.467189     -0.644295
  C      -3.133333     -0.825251      0.285880
  H      -2.015166      0.775025      1.159214
  H      -4.041087     -0.622422      0.852240
  H      -3.428844     -1.204376     -0.693234
  H      -2.590551     -1.609271      0.811694
  C      -0.872526      0.389237     -1.773098
  C       0.467935      0.178784     -2.260559
  H      -1.666589      0.759808     -2.414265
  C       1.548002      0.337882     -1.393066
  C       2.761880     -0.031119     -2.046335
  S       0.921195     -0.388593     -3.795383
  C       2.573931     -0.438014     -3.329638
  H       1.524539      1.274001     -0.652585
  H       3.738642      0.056676     -1.593254
  H       3.321018     -0.742863     -4.046740
  H      -0.795209     -3.184440     -0.171282
  H      -0.720704     -2.370951      2.421385
  H       1.789781     -1.541211      2.939052
  O       1.371576      2.453717      0.213425
  O       0.535574      0.945228      1.624849
  C       0.936861      2.129922      1.318908
  C       0.875282      3.127403      2.441524
  H       0.853921      4.142668      2.055112
  H       1.770144      3.022979      3.058128
  H       0.016508      2.954668      3.086693
  H       3.268798     -1.893228      0.738078
  H       1.655397     -2.897213     -1.203371
