39
Generated by autodE on: 2023-08-15. E = -1288.394495 Ha
Ir    0.62740  -0.73166   0.37953
C     0.18461  -2.85779   0.30465
C    -0.07464  -2.43253   1.65739
C     2.15728  -2.04750   1.19151
C     1.55855  -2.65374   0.03852
C     1.13689  -1.95133   2.18640
N    -1.07693   0.11719  -0.51158
C    -2.33611   0.31304   0.21997
C    -3.12494   1.53338  -0.23218
H    -3.94826   1.69671   0.46137
H    -3.57006   1.40936  -1.22035
H    -2.51342   2.43599  -0.23301
C    -3.17139  -0.95968   0.12814
H    -2.03881   0.46544   1.25862
H    -4.06353  -0.86351   0.74560
H    -3.49335  -1.14485  -0.89740
H    -2.62328  -1.83423   0.47481
C    -0.93768   0.48482  -1.73288
C     0.37780   0.29275  -2.26068
H    -1.74337   0.93525  -2.30263
C     1.38232  -0.00552  -1.32423
C     2.61527  -0.23649  -2.02824
S     0.91118   0.31321  -3.86470
C     2.50412  -0.09424  -3.37531
H     1.59296   1.13124  -0.74302
H     3.55741  -0.43575  -1.53786
H     3.28414  -0.18380  -4.11608
H    -0.52638  -3.31218  -0.36968
H    -1.01446  -2.49785   2.18370
H     1.26110  -1.50905   3.16468
O     1.68141   2.35295   0.01948
O     0.61258   1.03314   1.46084
C     1.13253   2.14175   1.11655
C     1.09350   3.24649   2.13320
H     1.00548   4.21493   1.64698
H     2.03230   3.24551   2.68991
H     0.28232   3.10777   2.84272
H     3.20181  -1.81470   1.32915
H     2.06303  -2.90532  -0.88315
