39
Generated by autodE on: 2023-08-14. E = -1288.398159 Ha
Ir    0.62599  -0.72024   0.40273
C     0.15215  -2.84094   0.32133
C    -0.04181  -2.39007   1.67490
C     2.17843  -2.06367   1.11412
C     1.51023  -2.65337  -0.01452
C     1.21246  -1.93446   2.14837
N    -1.06551   0.13091  -0.51464
C    -2.32999   0.34544   0.20382
C    -3.12874   1.53801  -0.30225
H    -3.95367   1.72505   0.38342
H    -3.57305   1.36487  -1.28339
H    -2.52592   2.44548  -0.34375
C    -3.15533  -0.93626   0.16167
H    -2.03779   0.54293   1.23620
H    -4.05484  -0.81721   0.76423
H    -3.46513  -1.17095  -0.85748
H    -2.60686  -1.79001   0.55609
C    -0.91792   0.47066  -1.74193
C     0.40061   0.27883  -2.26760
H    -1.72338   0.90218  -2.32707
C     1.43607   0.07454  -1.34721
C     2.65236  -0.19564  -2.05614
S     0.88952   0.15996  -3.88325
C     2.50275  -0.17759  -3.40739
H     1.60618   1.11656  -0.66441
H     3.60986  -0.33398  -1.57501
H     3.26294  -0.32106  -4.16014
H    -0.60128  -3.27308  -0.32095
H    -0.95491  -2.44081   2.24807
H     1.39176  -1.49168   3.11798
O     1.69167   2.34085   0.12113
O     0.56754   1.01675   1.51372
C     1.10658   2.12969   1.19366
C     1.03208   3.22300   2.22102
H     0.95208   4.19501   1.74033
H     1.95558   3.22329   2.80261
H     0.20279   3.07499   2.90751
H     3.23075  -1.83945   1.19529
H     1.96512  -2.90931  -0.96033
