! Opt PBEh-3c
%geom Constraints
{ B 0 20 2.2142857142857144 C }
{ B 24 30 1.4142857142857144 C }
    end
end
%output 
xyzfile=True 
end 
%scf 
maxiter 250 
end
%output
Print[P_Hirshfeld] = 1
end
% maxcore
4000
*xyz 1 1
Ir   0.61851824  -0.71727333   0.44095625 
C    0.09322207  -2.82002337   0.35247424 
C    0.03713372  -2.35672895   1.71350660 
C    2.20389930  -2.10440705   0.95375546 
C    1.41012474  -2.65416312  -0.11942965 
C    1.35814264  -1.95234839   2.07385256 
N   -1.04561152   0.13761423  -0.51845963 
C   -2.31358548   0.40618232   0.17841899 
C   -3.09821959   1.56945863  -0.40971667 
H   -3.92213320   1.81313882   0.25956703 
H   -3.54370346   1.33438682  -1.37730525 
H   -2.48511551   2.46510617  -0.51207012 
C   -3.14795773  -0.86896668   0.22285507 
H   -2.02257981   0.66855318   1.19646235 
H   -4.05355071  -0.69636844   0.80271736 
H   -3.44768289  -1.17996060  -0.77875593 
H   -2.61141814  -1.69195035   0.69250105 
C   -0.88486484   0.39553529  -1.76223960 
C    0.44644393   0.20446123  -2.27202695 
H   -1.69038250   0.77404123  -2.38413084 
C    1.52166114   0.25211932  -1.38642022 
C    2.73294122  -0.06765211  -2.06908080 
S    0.89917730  -0.20292139  -3.85686660 
C    2.54579546  -0.33004507  -3.39093185 
H    1.53976960   1.22091989  -0.63037927 
H    3.70900063  -0.04738902  -1.60658098 
H    3.29329784  -0.56935502  -4.13200481 
H   -0.73532471  -3.21308634  -0.21892969 
H   -0.81777118  -2.39062339   2.37198388 
H    1.64512590  -1.52808153   3.02558421 
O    1.46847278   2.40036250   0.17252061 
O    0.54567824   0.96767647   1.60587803 
C    0.98958215   2.12542598   1.27839605 
C    0.92915376   3.16839838   2.35741665 
H    0.90497107   4.16720928   1.93014216 
H    1.82771035   3.09161661   2.97261646 
H    0.07283947   3.01921817   3.01109851 
H    3.26044632  -1.88635238   0.92130493 
H    1.76616338  -2.90453808  -1.10793954 
*
