39
Generated by autodE on: 2023-08-15. E = -1288.402193 Ha
Ir    0.59371  -0.74342   0.48453
C     0.08227  -2.84071   0.40397
C    -0.08742  -2.35972   1.75039
C     2.13709  -2.10888   1.16702
C     1.43758  -2.68075   0.04521
C     1.19390  -1.93974   2.20823
N    -1.05476   0.10374  -0.50486
C    -2.34338   0.30844   0.17858
C    -3.13160   1.50186  -0.34317
H    -3.97039   1.68886   0.32559
H    -3.55592   1.33108  -1.33344
H    -2.52755   2.40897  -0.37174
C    -3.16624  -0.97291   0.11043
H    -2.08473   0.50563   1.22002
H    -4.08822  -0.85337   0.67810
H    -3.43729  -1.21129  -0.91892
H    -2.63381  -1.82569   0.52838
C    -0.88993   0.43328  -1.73319
C     0.42833   0.29186  -2.27579
H    -1.70691   0.83078  -2.32800
C     1.51229   0.16036  -1.42057
C     2.70378  -0.07119  -2.15990
S     0.85678   0.17990  -3.92196
C     2.49631  -0.07445  -3.50899
H     1.65713   1.18357  -0.54891
H     3.68431  -0.17409  -1.71845
H     3.23221  -0.19700  -4.28923
H    -0.69095  -3.25252  -0.22817
H    -0.99205  -2.38947   2.33869
H     1.39803  -1.49543   3.17230
O     1.75819   2.25867   0.17494
O     0.54370   1.01797   1.56599
C     1.13509   2.09337   1.24625
C     1.09995   3.21885   2.23501
H     0.99747   4.17381   1.72452
H     2.04754   3.24359   2.77599
H     0.29850   3.09199   2.95715
H     3.19308  -1.89395   1.22251
H     1.87328  -2.94279  -0.90778
