39
Generated by autodE on: 2023-08-14. E = -1288.400490 Ha
Ir    0.61773  -0.71267   0.43561
C     0.08968  -2.81255   0.34058
C     0.07051  -2.35216   1.70440
C     2.21565  -2.10266   0.89009
C     1.39245  -2.64475  -0.16600
C     1.40411  -1.95569   2.03395
N    -1.04501   0.14969  -0.52063
C    -2.31084   0.43681   0.17215
C    -3.09690   1.58164  -0.44799
H    -3.91986   1.84465   0.21517
H    -3.54404   1.31824  -1.40758
H    -2.48418   2.47414  -0.57696
C    -3.14224  -0.83811   0.25691
H    -2.01563   0.72776   1.18118
H    -4.04658  -0.64901   0.83344
H    -3.44375  -1.18058  -0.73382
H    -2.60284  -1.64458   0.75148
C    -0.87859   0.38617  -1.76631
C     0.45823   0.18082  -2.26427
H    -1.67818   0.75656  -2.40078
C     1.54232   0.32101  -1.39923
C     2.75187  -0.03929  -2.06481
S     0.90259  -0.35679  -3.81259
C     2.55673  -0.42038  -3.35529
H     1.52818   1.26188  -0.65163
H     3.73117   0.03594  -1.61500
H     3.30007  -0.71347  -4.08113
H    -0.75570  -3.19974  -0.20984
H    -0.76706  -2.38698   2.38495
H     1.71754  -1.53789   2.98010
O     1.39401   2.43952   0.19598
O     0.54267   0.95166   1.61929
C     0.95144   2.12993   1.30363
C     0.88877   3.14207   2.41256
H     0.85325   4.15168   2.01244
H     1.79113   3.05635   3.02106
H     0.03800   2.96889   3.06789
H     3.27003  -1.88021   0.82682
H     1.72262  -2.88870  -1.16507
