39
Generated by autodE on: 2023-08-14. E = -1288.397248 Ha
Ir    0.62668  -0.71275   0.39756
C     0.14685  -2.83525   0.32598
C    -0.01773  -2.37909   1.68092
C     2.19090  -2.06010   1.07258
C     1.49634  -2.64953  -0.04168
C     1.24943  -1.92536   2.12643
N    -1.06551   0.13633  -0.52106
C    -2.32813   0.36141   0.19729
C    -3.13170   1.54158  -0.32942
H    -3.95445   1.74029   0.35566
H    -3.57980   1.34703  -1.30483
H    -2.53164   2.44966  -0.39174
C    -3.15008  -0.92319   0.18321
H    -2.03222   0.57856   1.22462
H    -4.04872  -0.79324   0.78477
H    -3.46126  -1.18004  -0.83014
H    -2.59872  -1.76660   0.59537
C    -0.91772   0.46200  -1.75189
C     0.40289   0.26461  -2.27220
H    -1.72219   0.88669  -2.34335
C     1.44055   0.09151  -1.34628
C     2.65880  -0.18937  -2.04916
S     0.89083   0.09852  -3.88283
C     2.50817  -0.21286  -3.39956
H     1.59288   1.11734  -0.67056
H     3.61764  -0.30471  -1.56470
H     3.26825  -0.37226  -4.14918
H    -0.62254  -3.26413  -0.29941
H    -0.91838  -2.42662   2.27375
H     1.45108  -1.48005   3.09048
O     1.66124   2.36319   0.13599
O     0.55940   1.01185   1.52130
C     1.08850   2.13487   1.20849
C     1.01192   3.20862   2.25698
H     1.01269   4.19444   1.79921
H     1.89434   3.14062   2.89563
H     0.13598   3.08995   2.88989
H     3.24477  -1.83539   1.12890
H     1.93005  -2.90934  -0.99630
