39
Generated by autodE on: 2023-08-15. E = -1288.403117 Ha
Ir    0.60787  -0.73136   0.43894
C     0.13358  -2.84293   0.35237
C    -0.08786  -2.38150   1.69854
C     2.14655  -2.07017   1.18472
C     1.49952  -2.65991   0.04432
C     1.15996  -1.93025   2.19688
N    -1.06813   0.11258  -0.50866
C    -2.34575   0.30858   0.19425
C    -3.13835   1.51146  -0.29759
H    -3.97224   1.68446   0.38086
H    -3.56944   1.35999  -1.28811
H    -2.53449   2.41903  -0.31231
C    -3.16912  -0.97205   0.11256
H    -2.07266   0.48636   1.23548
H    -4.07952  -0.86702   0.70134
H    -3.46027  -1.18665  -0.91650
H    -2.62666  -1.83358   0.49855
C    -0.91462   0.45969  -1.73357
C     0.40274   0.29773  -2.27062
H    -1.72761   0.87935  -2.31764
C     1.45548   0.09201  -1.38280
C     2.66138  -0.14816  -2.10595
S     0.87064   0.23002  -3.90223
C     2.49099  -0.09643  -3.45706
H     1.63642   1.14377  -0.60157
H     3.62672  -0.29387  -1.64322
H     3.24309  -0.21394  -4.22240
H    -0.60716  -3.27527  -0.30436
H    -1.01203  -2.42868   2.25408
H     1.31998  -1.48334   3.16801
O     1.76275   2.27861   0.13193
O     0.55978   1.02974   1.52505
C     1.14765   2.10885   1.20445
C     1.11186   3.23029   2.19942
H     0.99075   4.18565   1.69361
H     2.06649   3.26521   2.72705
H     0.32158   3.09173   2.93159
H     3.19709  -1.84501   1.28392
H     1.97242  -2.91580  -0.89259
