39
Coordinates from ORCA-job reaction4-IEIP_ts_guess_scan_9-11_orca E -1288.402654002114
  Ir      0.608709     -0.723404      0.449863
  C       0.105517     -2.827500      0.356512
  C      -0.042983     -2.358550      1.709633
  C       2.170057     -2.088557      1.087635
  C       1.452894     -2.656364     -0.025832
  C       1.245186     -1.934866      2.148942
  N      -1.056700      0.126190     -0.511890
  C      -2.335635      0.343083      0.183843
  C      -3.132928      1.523702     -0.352348
  H      -3.964968      1.721593      0.321720
  H      -3.567767      1.331090     -1.334059
  H      -2.532354      2.432009     -0.405723
  C      -3.155686     -0.941789      0.151478
  H      -2.061972      0.559640      1.217529
  H      -4.069704     -0.813001      0.729790
  H      -3.440873     -1.200312     -0.869147
  H      -2.614833     -1.784611      0.578640
  C      -0.898323      0.441737     -1.737934
  C       0.421209      0.271979     -2.257867
  H      -1.707856      0.842550     -2.340398
  C       1.490842      0.166515     -1.375773
  C       2.690333     -0.109917     -2.093473
  S       0.867613      0.070473     -3.886660
  C       2.500726     -0.181236     -3.441128
  H       1.622563      1.165075     -0.559105
  H       3.664863     -0.192916     -1.634724
  H       3.244438     -0.348237     -4.205535
  H      -0.677441     -3.237810     -0.264575
  H      -0.937138     -2.398022      2.313184
  H       1.464447     -1.497556      3.112862
  O       1.700941      2.285632      0.176744
  O       0.543044      1.008124      1.565651
  C       1.101733      2.103926      1.247608
  C       1.044278      3.211861      2.257142
  H       1.007940      4.180209      1.764175
  H       1.954179      3.186733      2.859506
  H       0.196167      3.099334      2.927232
  H       3.225694     -1.867978      1.125337
  H       1.873157     -2.909641     -0.988113
39
Coordinates from ORCA-job reaction4-IEIP_ts_guess_scan_9-11_orca E -1288.402895139167
  Ir      0.607764     -0.724237      0.448296
  C       0.103494     -2.829981      0.359114
  C      -0.043007     -2.361852      1.712523
  C       2.168069     -2.090914      1.087843
  C       1.450162     -2.659538     -0.024574
  C       1.244095     -1.936887      2.149410
  N      -1.060420      0.124188     -0.510478
  C      -2.339211      0.340703      0.185816
  C      -3.135958      1.521830     -0.350075
  H      -3.968445      1.719257      0.323549
  H      -3.570048      1.330037     -1.332296
  H      -2.535305      2.430171     -0.402346
  C      -3.159472     -0.943955      0.152131
  H      -2.065860      0.556410      1.219753
  H      -4.073515     -0.815552      0.730470
  H      -3.444670     -1.201522     -0.868746
  H      -2.618826     -1.787258      0.578568
  C      -0.899199      0.441279     -1.741291
  C       0.424554      0.274642     -2.263594
  H      -1.708341      0.843232     -2.343490
  C       1.491177      0.162714     -1.378164
  C       2.692567     -0.112313     -2.094005
  S       0.875801      0.081427     -3.892074
  C       2.507180     -0.176071     -3.442679
  H       1.624896      1.171740     -0.561475
  H       3.665760     -0.198174     -1.632809
  H       3.253071     -0.340301     -4.205488
  H      -0.680065     -3.240919     -0.260837
  H      -0.936180     -2.401776      2.317380
  H       1.464170     -1.499392      3.113042
  O       1.706867      2.292854      0.173134
  O       0.542831      1.011546      1.565682
  C       1.104824      2.108384      1.246555
  C       1.047881      3.216192      2.256062
  H       1.010677      4.184572      1.763115
  H       1.958299      3.191426      2.857613
  H       0.200291      3.103164      2.926612
  H       3.223952     -1.871511      1.125332
  H       1.869513     -2.914425     -0.986839
39
Coordinates from ORCA-job reaction4-IEIP_ts_guess_scan_9-11_orca E -1288.402978914463
  Ir      0.606378     -0.724579      0.448459
  C       0.099497     -2.830716      0.365726
  C      -0.045568     -2.362496      1.718825
  C       2.164509     -2.092374      1.092151
  C       1.446110     -2.662237     -0.018931
  C       1.240676     -1.936736      2.153484
  N      -1.061630      0.122408     -0.509649
  C      -2.340545      0.337536      0.185361
  C      -3.137495      1.517868     -0.351895
  H      -3.971507      1.714519      0.320105
  H      -3.569305      1.325542     -1.335006
  H      -2.537609      2.426752     -0.403095
  C      -3.159388     -0.947999      0.151100
  H      -2.068039      0.553486      1.219461
  H      -4.073909     -0.820655      0.728964
  H      -3.443674     -1.205853     -0.869922
  H      -2.617936     -1.790668      0.577856
  C      -0.899599      0.442319     -1.741681
  C       0.425104      0.279189     -2.267503
  H      -1.709554      0.845343     -2.341844
  C       1.489529      0.156876     -1.380788
  C       2.692063     -0.113560     -2.096609
  S       0.878840      0.100059     -3.896640
  C       2.509465     -0.162375     -3.446331
  H       1.626394      1.175386     -0.565012
  H       3.664256     -0.204888     -1.634326
  H       3.256833     -0.319496     -4.209175
  H      -0.684629     -3.242046     -0.253228
  H      -0.938353     -2.401243      2.324275
  H       1.461327     -1.498113      3.116475
  O       1.714093      2.295555      0.170376
  O       0.542994      1.013426      1.562741
  C       1.108713      2.108948      1.244244
  C       1.054578      3.216139      2.253703
  H       1.017317      4.184699      1.761066
  H       1.966047      3.190456      2.853633
  H       0.207867      3.103271      2.925269
  H       3.220745     -1.874794      1.129883
  H       1.864776     -2.919758     -0.980781
39
Coordinates from ORCA-job reaction4-IEIP_ts_guess_scan_9-11_orca E -1288.403034961574
  Ir      0.605047     -0.726164      0.449647
  C       0.095429     -2.832199      0.375238
  C      -0.049349     -2.362848      1.727583
  C       2.160665     -2.094389      1.100219
  C       1.442527     -2.666242     -0.009645
  C       1.235994     -1.936114      2.160637
  N      -1.062423      0.119707     -0.510529
  C      -2.342466      0.332246      0.182904
  C      -3.140745      1.512328     -0.353065
  H      -3.975922      1.706558      0.318184
  H      -3.571032      1.321005     -1.337011
  H      -2.542154      2.422189     -0.401958
  C      -3.159957     -0.954141      0.146439
  H      -2.071285      0.546949      1.217670
  H      -4.075128     -0.828519      0.723679
  H      -3.442971     -1.211102     -0.875144
  H      -2.617911     -1.796590      0.572735
  C      -0.899589      0.444837     -1.741632
  C       0.424683      0.285879     -2.270616
  H      -1.710350      0.849980     -2.339060
  C       1.486942      0.148421     -1.383499
  C       2.690562     -0.114221     -2.100299
  S       0.881867      0.133713     -3.901154
  C       2.510209     -0.143862     -3.450941
  H       1.628256      1.176680     -0.569535
  H       3.661467     -0.215772     -1.637468
  H       3.258547     -0.293083     -4.214427
  H      -0.688787     -3.244285     -0.243079
  H      -0.942395     -2.399335      2.332731
  H       1.456630     -1.495413      3.122702
  O       1.723664      2.295203      0.167396
  O       0.544106      1.016572      1.558531
  C       1.114850      2.108791      1.241047
  C       1.065284      3.216989      2.249121
  H       1.027938      4.185111      1.755608
  H       1.978559      3.190806      2.846294
  H       0.220227      3.105749      2.922999
  H       3.217280     -1.878940      1.138999
  H       1.861102     -2.927304     -0.970562
39
Coordinates from ORCA-job reaction4-IEIP_ts_guess_scan_9-11_orca E -1288.403070869594
  Ir      0.603026     -0.729849      0.451820
  C       0.089312     -2.834518      0.387743
  C      -0.056794     -2.362241      1.738621
  C       2.154579     -2.098027      1.113121
  C       1.437748     -2.672621      0.004216
  C       1.227705     -1.934994      2.171384
  N      -1.062273      0.116157     -0.512380
  C      -2.343802      0.325092      0.179693
  C      -3.144145      1.505020     -0.353579
  H      -3.980038      1.695802      0.317689
  H      -3.573613      1.315437     -1.338225
  H      -2.547268      2.416174     -0.399704
  C      -3.159549     -0.962352      0.140052
  H      -2.074184      0.537899      1.215344
  H      -4.075636     -0.838961      0.716302
  H      -3.440742     -1.217973     -0.882371
  H      -2.616919     -1.804704      0.565704
  C      -0.899066      0.448615     -1.740966
  C       0.423252      0.292706     -2.273001
  H      -1.710796      0.856446     -2.335231
  C       1.483369      0.135199     -1.386590
  C       2.688234     -0.114774     -2.105512
  S       0.882977      0.169735     -3.904943
  C       2.511367     -0.110838     -3.457059
  H       1.630688      1.173224     -0.575977
  H       3.657825     -0.228712     -1.642895
  H       3.261618     -0.242234     -4.221969
  H      -0.694382     -3.247462     -0.230651
  H      -0.951148     -2.394496      2.342024
  H       1.447491     -1.490914      3.132111
  O       1.735840      2.289883      0.162455
  O       0.545852      1.019761      1.552017
  C       1.123287      2.106779      1.235409
  C       1.080191      3.218000      2.240515
  H       1.042238      4.184838      1.744531
  H       1.996283      3.192221      2.833391
  H       0.237937      3.109991      2.918393
  H       3.211673     -1.885473      1.154170
  H       1.857233     -2.938646     -0.954911
39
Coordinates from ORCA-job reaction4-IEIP_ts_guess_scan_9-11_orca E -1288.403080695861
  Ir      0.602009     -0.732103      0.452456
  C       0.088171     -2.835695      0.391957
  C      -0.061067     -2.361284      1.741805
  C       2.152059     -2.098368      1.120670
  C       1.437825     -2.674850      0.011211
  C       1.222570     -1.933183      2.176677
  N      -1.061880      0.113826     -0.514003
  C      -2.343669      0.321105      0.178646
  C      -3.144788      1.501684     -0.351939
  H      -3.980126      1.690734      0.320463
  H      -3.575092      1.313875     -1.336582
  H      -2.548336      2.413200     -0.396725
  C      -3.159145     -0.966415      0.136817
  H      -2.074225      0.532335      1.214695
  H      -4.075593     -0.843859      0.712644
  H      -3.439637     -1.220707     -0.886136
  H      -2.616792     -1.809328      0.561672
  C      -0.899035      0.450928     -1.740525
  C       0.422145      0.296764     -2.272971
  H      -1.710810      0.861629     -2.332851
  C       1.481833      0.129246     -1.387938
  C       2.686993     -0.114131     -2.108260
  S       0.884482      0.198058     -3.905828
  C       2.510084     -0.099884     -3.459844
  H       1.632115      1.169105     -0.578823
  H       3.655828     -0.237036     -1.646390
  H       3.259981     -0.228148     -4.225640
  H      -0.693963     -3.249709     -0.227695
  H      -0.957046     -2.391647      2.342887
  H       1.440335     -1.487003      3.136892
  O       1.741417      2.284831      0.160415
  O       0.545477      1.020900      1.547754
  C       1.126614      2.105128      1.232135
  C       1.086032      3.218355      2.235604
  H       1.046996      4.184276      1.737924
  H       2.003659      3.193750      2.826146
  H       0.245433      3.111851      2.915760
  H       3.209130     -1.886189      1.164100
  H       1.859390     -2.942853     -0.946440
39
Coordinates from ORCA-job reaction4-IEIP_ts_guess_scan_9-11_orca E -1288.403088800063
  Ir      0.601973     -0.733161      0.452503
  C       0.089125     -2.836426      0.391339
  C      -0.062393     -2.360841      1.740734
  C       2.151877     -2.098231      1.123055
  C       1.439420     -2.675361      0.012754
  C       1.220842     -1.932533      2.177713
  N      -1.061852      0.113435     -0.514200
  C      -2.343422      0.320554      0.179292
  C      -3.144051      1.502212     -0.349639
  H      -3.978846      1.690890      0.323554
  H      -3.575053      1.315891     -1.334258
  H      -2.547137      2.413469     -0.393618
  C      -3.159592     -0.966438      0.135806
  H      -2.073742      0.530587      1.215495
  H      -4.076201     -0.843909      0.711393
  H      -3.439873     -1.219464     -0.887519
  H      -2.618043     -1.810234      0.559884
  C      -0.899282      0.451319     -1.740321
  C       0.421600      0.295856     -2.272226
  H      -1.710716      0.862643     -2.332667
  C       1.481865      0.127930     -1.387979
  C       2.686950     -0.113832     -2.108731
  S       0.883406      0.196593     -3.905423
  C       2.509797     -0.097252     -3.460321
  H       1.632671      1.165904     -0.579074
  H       3.655971     -0.236706     -1.647252
  H       3.259743     -0.223217     -4.226452
  H      -0.691822     -3.251096     -0.229371
  H      -0.959317     -2.390976      2.340436
  H       1.437123     -1.485776      3.137986
  O       1.741718      2.282116      0.159469
  O       0.545282      1.020495      1.546925
  C       1.127005      2.104382      1.230911
  C       1.086245      3.218416      2.233701
  H       1.045469      4.183818      1.735129
  H       2.004645      3.195474      2.823085
  H       0.246607      3.111680      2.915000
  H       3.208794     -1.885515      1.167782
  H       1.862583     -2.943502     -0.944158
39
Coordinates from ORCA-job reaction4-IEIP_ts_guess_scan_9-11_orca E -1288.403091680422
  Ir      0.601782     -0.733851      0.452351
  C       0.090281     -2.837048      0.390297
  C      -0.064557     -2.360220      1.739097
  C       2.151174     -2.097539      1.126550
  C       1.441468     -2.675593      0.014993
  C       1.217715     -1.931488      2.179092
  N      -1.061916      0.113180     -0.513981
  C      -2.343215      0.319662      0.180304
  C      -3.143498      1.502444     -0.346715
  H      -3.977996      1.690320      0.327084
  H      -3.574800      1.317908     -1.331534
  H      -2.546297      2.413576     -0.389346
  C      -3.159650     -0.967042      0.134517
  H      -2.073367      0.528180      1.216733
  H      -4.076506     -0.845155      0.709865
  H      -3.439565     -1.218412     -0.889311
  H      -2.618603     -1.811777      0.557410
  C      -0.899664      0.451989     -1.739932
  C       0.421096      0.295685     -2.271742
  H      -1.710810      0.864225     -2.332008
  C       1.481827      0.126639     -1.388339
  C       2.686619     -0.113947     -2.109770
  S       0.882389      0.197629     -3.905413
  C       2.509040     -0.095060     -3.461353
  H       1.634060      1.162805     -0.579254
  H       3.655788     -0.237513     -1.648808
  H       3.258842     -0.219537     -4.227872
  H      -0.688889     -3.252728     -0.231964
  H      -0.962791     -2.390419      2.336853
  H       1.431651     -1.484134      3.139603
  O       1.743389      2.279594      0.158374
  O       0.545005      1.020400      1.545851
  C       1.128065      2.103825      1.229426
  C       1.087106      3.218491      2.231532
  H       1.043533      4.183336      1.732058
  H       2.006778      3.197915      2.818994
  H       0.248981      3.110901      2.914513
  H       3.207863     -1.884122      1.173386
  H       1.867043     -2.943928     -0.940799
39
Coordinates from ORCA-job reaction4-IEIP_ts_guess_scan_9-11_orca E -1288.403093677233
  Ir      0.601757     -0.734433      0.452232
  C       0.092365     -2.837990      0.389194
  C      -0.067130     -2.359999      1.737262
  C       2.150433     -2.096328      1.131804
  C       1.444730     -2.675725      0.018489
  C       1.213430     -1.930307      2.181329
  N      -1.062193      0.112832     -0.513501
  C      -2.343322      0.318367      0.181381
  C      -3.142950      1.502774     -0.343057
  H      -3.977410      1.689458      0.331126
  H      -3.574129      1.320843     -1.328406
  H      -2.545283      2.413703     -0.383389
  C      -3.160265     -0.967865      0.132191
  H      -2.073485      0.524599      1.218245
  H      -4.077417     -0.846996      0.707306
  H      -3.439739     -1.216681     -0.892379
  H      -2.619880     -1.813966      0.553199
  C      -0.900317      0.452743     -1.739326
  C       0.420263      0.296007     -2.271578
  H      -1.711335      0.866005     -2.330822
  C       1.481439      0.124931     -1.389157
  C       2.685760     -0.114460     -2.111649
  S       0.880810      0.200589     -3.905833
  C       2.507503     -0.092725     -3.463169
  H       1.636096      1.159734     -0.579422
  H       3.655124     -0.239252     -1.651432
  H       3.256999     -0.215846     -4.230206
  H      -0.684247     -3.255221     -0.235209
  H      -0.967117     -2.390756      2.332369
  H       1.423904     -1.482277      3.142285
  O       1.746332      2.277125      0.157159
  O       0.544984      1.020603      1.544599
  C       1.129880      2.103304      1.227740
  C       1.088806      3.218662      2.228975
  H       1.040667      4.182806      1.728473
  H       2.010614      3.201731      2.813173
  H       0.253208      3.109375      2.914712
  H       3.206781     -1.881934      1.181770
  H       1.873703     -2.944239     -0.935739
39
Coordinates from ORCA-job reaction4-IEIP_ts_guess_scan_9-11_orca E -1288.403095923984
  Ir      0.601873     -0.734865      0.452018
  C       0.096506     -2.839382      0.386712
  C      -0.071869     -2.360258      1.733612
  C       2.148975     -2.093685      1.141649
  C       1.451034     -2.675310      0.024846
  C       1.205077     -1.928549      2.185435
  N      -1.062538      0.112529     -0.512433
  C      -2.343533      0.316128      0.183143
  C      -3.142113      1.503420     -0.336489
  H      -3.976767      1.687696      0.338112
  H      -3.572746      1.326309     -1.322942
  H      -2.543694      2.414040     -0.372343
  C      -3.161155     -0.969394      0.127737
  H      -2.073866      0.518008      1.220880
  H      -4.078573     -0.850869      0.702942
  H      -3.440239     -1.213271     -0.898127
  H      -2.621406     -1.817916      0.544745
  C      -0.901454      0.453936     -1.738124
  C       0.418620      0.296956     -2.271719
  H      -1.712616      0.868513     -2.328466
  C       1.480446      0.122275     -1.390937
  C       2.683824     -0.115928     -2.115315
  S       0.877584      0.205808     -3.906879
  C       2.504222     -0.090034     -3.466651
  H       1.639830      1.155441     -0.579549
  H       3.653536     -0.242927     -1.656424
  H       3.253024     -0.211721     -4.234592
  H      -0.675218     -3.259325     -0.241890
  H      -0.975167     -2.392579      2.323621
  H       1.408757     -1.479643      3.147444
  O       1.751982      2.273682      0.155451
  O       0.545425      1.021347      1.542627
  C       1.133358      2.102651      1.225219
  C       1.092197      3.219261      2.224877
  H       1.034608      4.182102      1.722696
  H       2.018412      3.209723      2.802198
  H       0.261935      3.106254      2.916355
  H       3.204647     -1.877537      1.197812
  H       1.886450     -2.943695     -0.926511
39
Coordinates from ORCA-job reaction4-IEIP_ts_guess_scan_9-11_orca E -1288.403099014844
  Ir      0.602387     -0.734930      0.451943
  C       0.102530     -2.840842      0.382776
  C      -0.077128     -2.361851      1.728560
  C       2.147561     -2.090014      1.153650
  C       1.459642     -2.673893      0.032165
  C       1.194841     -1.927285      2.190282
  N      -1.062874      0.112309     -0.510934
  C      -2.343854      0.313708      0.185155
  C      -3.140756      1.504753     -0.328500
  H      -3.975821      1.686193      0.346342
  H      -3.570514      1.333807     -1.316411
  H      -2.541124      2.414778     -0.358615
  C      -3.162637     -0.970722      0.122094
  H      -2.074547      0.509942      1.224054
  H      -4.079952     -0.855202      0.698084
  H      -3.441942     -1.208045     -0.905255
  H      -2.623421     -1.822367      0.533461
  C      -0.902925      0.454829     -1.736540
  C       0.416339      0.297936     -2.272132
  H      -1.714676      0.870219     -2.325511
  C       1.478911      0.119688     -1.393158
  C       2.681080     -0.118273     -2.119635
  S       0.873119      0.210317     -3.908164
  C       2.499726     -0.089062     -3.470698
  H       1.643910      1.151577     -0.579552
  H       3.651231     -0.247460     -1.662263
  H       3.247547     -0.210159     -4.239684
  H      -0.662957     -3.263821     -0.251358
  H      -0.984607     -2.396818      2.311976
  H       1.389682     -1.477855      3.153878
  O       1.758207      2.270615      0.153903
  O       0.546633      1.022398      1.540880
  C       1.137300      2.102125      1.222899
  C       1.096070      3.220472      2.220479
  H       1.025218      4.181502      1.716333
  H       2.028299      3.221234      2.788080
  H       0.273446      3.102186      2.920035
  H       3.202298     -1.871636      1.217915
  H       1.903129     -2.941165     -0.915793
39
Coordinates from ORCA-job reaction4-IEIP_ts_guess_scan_9-11_orca E -1288.403103105106
  Ir      0.603209     -0.734525      0.452093
  C       0.109436     -2.841787      0.377201
  C      -0.082084     -2.364958      1.722318
  C       2.146300     -2.085989      1.165427
  C       1.469116     -2.671261      0.038553
  C       1.184277     -1.927320      2.194691
  N      -1.063002      0.112272     -0.509195
  C      -2.344047      0.311713      0.187245
  C      -3.138946      1.506723     -0.320266
  H      -3.974434      1.685501      0.354742
  H      -3.567893      1.342179     -1.309610
  H      -2.537811      2.415919     -0.344599
  C      -3.164234     -0.971452      0.116677
  H      -2.075146      0.502010      1.227349
  H      -4.080813     -0.859152      0.694460
  H      -3.444802     -1.201718     -0.911946
  H      -2.625070     -1.826338      0.521457
  C      -0.904407      0.454980     -1.734861
  C       0.413910      0.298397     -2.272624
  H      -1.717155      0.870184     -2.322646
  C       1.477223      0.117966     -1.395180
  C       2.678174     -0.121186     -2.123358
  S       0.868351      0.211723     -3.909248
  C       2.495048     -0.090901     -3.474144
  H       1.647218      1.149266     -0.579627
  H       3.648756     -0.251796     -1.667283
  H       3.241778     -0.212672     -4.244080
  H      -0.649499     -3.267166     -0.263144
  H      -0.994041     -2.403227      2.298498
  H       1.369616     -1.478172      3.160295
  O       1.763144      2.268877      0.152697
  O       0.548677      1.023552      1.539912
  C       1.140695      2.102016      1.221307
  C       1.099444      3.222440      2.216548
  H       1.012972      4.181242      1.710422
  H       2.038473      3.235245      2.772631
  H       0.286018      3.098035      2.925641
  H       3.199983     -1.865406      1.238587
  H       1.920935     -2.936022     -0.906197
39
Coordinates from ORCA-job reaction4-IEIP_ts_guess_scan_9-11_orca E -1288.403107910099
  Ir      0.604034     -0.734052      0.452545
  C       0.114803     -2.841953      0.371826
  C      -0.084900     -2.368690      1.717073
  C       2.145718     -2.083275      1.172796
  C       1.476162     -2.668432      0.041604
  C       1.177259     -1.928954      2.197138
  N      -1.063001      0.112179     -0.507795
  C      -2.344099      0.310843      0.188811
  C      -3.137137      1.508717     -0.314744
  H      -3.972817      1.686207      0.360357
  H      -3.565737      1.348492     -1.304951
  H      -2.534582      2.417052     -0.335471
  C      -3.165698     -0.971191      0.113637
  H      -2.075463      0.497118      1.229713
  H      -4.081157     -0.860892      0.693558
  H      -3.448167     -1.196479     -0.915576
  H      -2.626342     -1.828372      0.513349
  C      -0.905460      0.454128     -1.733672
  C       0.412245      0.297832     -2.272808
  H      -1.719166      0.868255     -2.320965
  C       1.476124      0.117546     -1.396049
  C       2.676340     -0.123421     -2.124906
  S       0.865179      0.209335     -3.909558
  C       2.492114     -0.094504     -3.475539
  H       1.648227      1.149333     -0.580163
  H       3.647202     -0.254072     -1.669427
  H       3.238067     -0.217597     -4.246015
  H      -0.639627     -3.268093     -0.273307
  H      -1.000124     -2.409538      2.287856
  H       1.355870     -1.480889      3.164515
  O       1.764545      2.269111      0.151843
  O       0.550925      1.024276      1.540047
  C       1.142203      2.102407      1.220780
  C       1.101057      3.224511      2.214245
  H       1.001722      4.181387      1.706730
  H       2.045449      3.247051      2.760802
  H       0.295389      3.095202      2.931241
  H       3.198637     -1.861385      1.252580
  H       1.933579     -2.930003     -0.901357
39
Coordinates from ORCA-job reaction4-IEIP_ts_guess_scan_9-11_orca E -1288.403112730146
  Ir      0.604599     -0.733844      0.453115
  C       0.118011     -2.841689      0.367449
  C      -0.086007     -2.372079      1.713342
  C       2.145616     -2.082113      1.175951
  C       1.480247     -2.666202      0.041885
  C       1.173746     -1.931390      2.197873
  N      -1.062891      0.111969     -0.506876
  C      -2.343902      0.310945      0.189915
  C      -3.135546      1.510404     -0.311975
  H      -3.971099      1.687895      0.363293
  H      -3.564334      1.352173     -1.302424
  H      -2.531885      2.418024     -0.331435
  C      -3.166686     -0.970253      0.113107
  H      -2.075230      0.495396      1.231128
  H      -4.081009     -0.860598      0.694926
  H      -3.451096     -1.193057     -0.916113
  H      -2.627119     -1.828681      0.509900
  C      -0.905996      0.452712     -1.733061
  C       0.411515      0.296426     -2.272607
  H      -1.720297      0.865576     -2.320462
  C       1.475778      0.117849     -1.395865
  C       2.675758     -0.124563     -2.124652
  S       0.863862      0.204935     -3.909212
  C       2.491105     -0.098130     -3.475253
  H       1.647309      1.150827     -0.581303
  H       3.646769     -0.254282     -1.669217
  H       3.236661     -0.222412     -4.245923
  H      -0.634066     -3.267355     -0.280738
  H      -1.003201     -2.414310      2.280848
  H       1.348724     -1.484745      3.166571
  O       1.763015      2.270504      0.150953
  O       0.552739      1.024451      1.540692
  C       1.142044      2.103043      1.220701
  C       1.101028      3.226113      2.213207
  H       0.992701      4.181641      1.704939
  H       2.049005      3.255198      2.753159
  H       0.300866      3.093382      2.935721
  H       3.198135     -1.859805      1.259715
  H       1.940502     -2.924765     -0.900534
39
Coordinates from ORCA-job reaction4-IEIP_ts_guess_scan_9-11_orca E -1288.403116720241
  Ir      0.604894     -0.734021      0.453677
  C       0.119693     -2.841526      0.364418
  C      -0.086322     -2.374590      1.710990
  C       2.145742     -2.081928      1.176940
  C       1.482374     -2.664921      0.041191
  C       1.172289     -1.933616      2.197901
  N      -1.062779      0.111687     -0.506302
  C      -2.343593      0.311453      0.190723
  C      -3.134271      1.511678     -0.310828
  H      -3.969555      1.689769      0.364631
  H      -3.563436      1.354061     -1.301213
  H      -2.529836      2.418779     -0.330269
  C      -3.167311     -0.969142      0.113782
  H      -2.074704      0.495416      1.231957
  H      -4.080834     -0.859309      0.696822
  H      -3.453117     -1.191028     -0.915244
  H      -2.627773     -1.828197      0.509277
  C      -0.906221      0.451379     -1.732781
  C       0.411345      0.294771     -2.272143
  H      -1.720702      0.863406     -2.320528
  C       1.475873      0.118118     -1.395191
  C       2.675885     -0.124874     -2.123735
  S       0.863620      0.200863     -3.908597
  C       2.491144     -0.100540     -3.474355
  H       1.645602      1.152489     -0.582863
  H       3.646991     -0.253446     -1.668176
  H       3.236545     -0.225415     -4.245080
  H      -0.631289     -3.266428     -0.285542
  H      -1.004627     -2.417279      2.276664
  H       1.345603     -1.488218      3.167470
  O       1.760345      2.271996      0.149806
  O       0.553940      1.024268      1.541239
  C       1.141203      2.103634      1.220472
  C       1.100291      3.227010      2.212697
  H       0.985809      4.181707      1.704180
  H       2.050639      3.260303      2.748181
  H       0.303929      3.091783      2.938933
  H       3.198093     -1.859651      1.262861
  H       1.943890     -2.921254     -0.901225
39
Coordinates from ORCA-job reaction4-IEIP_ts_guess_scan_9-11_orca E -1288.403119111797
  Ir      0.604950     -0.734320      0.454024
  C       0.120290     -2.841596      0.362961
  C      -0.086476     -2.375740      1.709874
  C       2.145803     -2.082082      1.177143
  C       1.483167     -2.664565      0.040719
  C       1.171761     -1.934761      2.197808
  N      -1.062723      0.111550     -0.505988
  C      -2.343362      0.311904      0.191216
  C      -3.133645      1.512331     -0.310509
  H      -3.968742      1.690909      0.365066
  H      -3.563039      1.354675     -1.300785
  H      -2.528899      2.419219     -0.330251
  C      -3.167519     -0.968413      0.114531
  H      -2.074266      0.495987      1.232364
  H      -4.080779     -0.858254      0.697932
  H      -3.453823     -1.190206     -0.914373
  H      -2.628149     -1.827683      0.509795
  C      -0.906263      0.450680     -1.732666
  C       0.411439      0.293632     -2.271709
  H      -1.720623      0.862516     -2.320697
  C       1.476120      0.118142     -1.394606
  C       2.676215     -0.124780     -2.123064
  S       0.863777      0.198642     -3.908130
  C       2.491468     -0.101437     -3.473697
  H       1.644267      1.153585     -0.584270
  H       3.647392     -0.252601     -1.667441
  H       3.236836     -0.226402     -4.244441
  H      -0.630245     -3.266125     -0.287757
  H      -1.005274     -2.418380      2.274757
  H       1.344523     -1.490065      3.167792
  O       1.758275      2.272968      0.148704
  O       0.554505      1.024036      1.541385
  C       1.140570      2.104010      1.220024
  C       1.099755      3.227167      2.212480
  H       0.981571      4.181537      1.704159
  H       2.051521      3.262760      2.745270
  H       0.305697      3.090167      2.940887
  H       3.198108     -1.859940      1.263967
  H       1.945184     -2.919873     -0.901734
