39
Generated by autodE on: 2023-08-15. E = -1288.399895 Ha
Ir    0.59613  -0.73641   0.48810
C     0.09354  -2.83536   0.37523
C    -0.05582  -2.36526   1.72872
C     2.15757  -2.10484   1.11528
C     1.44005  -2.66416  -0.00370
C     1.23510  -1.95192   2.17429
N    -1.04938   0.11617  -0.50146
C    -2.33396   0.34507   0.18183
C    -3.11637   1.52978  -0.36706
H    -3.95247   1.73851   0.29879
H    -3.54456   1.33682  -1.35157
H    -2.50722   2.43236  -0.41965
C    -3.16294  -0.93380   0.14803
H    -2.06890   0.56505   1.21696
H    -4.07973  -0.79691   0.72006
H    -3.44338  -1.19375  -0.87355
H    -2.63075  -1.77917   0.58130
C    -0.88434   0.41198  -1.73734
C     0.43795   0.25806  -2.27436
H    -1.69983   0.79368  -2.34476
C     1.53596   0.23453  -1.42579
C     2.72290  -0.04218  -2.15933
S     0.84707  -0.00741  -3.90712
C     2.49917  -0.18502  -3.49683
H     1.63347   1.20642  -0.56640
H     3.71085  -0.07530  -1.72363
H     3.22668  -0.36619  -4.27350
H    -0.69050  -3.23970  -0.24842
H    -0.95110  -2.40373   2.33096
H     1.45411  -1.52027   3.14080
O     1.68634   2.29325   0.19591
O     0.53788   0.99707   1.59488
C     1.09336   2.09782   1.27230
C     1.03949   3.20047   2.28734
H     0.95776   4.16818   1.79821
H     1.97166   3.20238   2.85524
H     0.21954   3.06299   2.98697
H     3.21283  -1.88195   1.15207
H     1.86121  -2.90807  -0.96807
