39
Generated by autodE on: 2023-08-15. E = -1288.402993 Ha
Ir    0.61384  -0.73881   0.41286
C     0.15667  -2.85405   0.33646
C    -0.10240  -2.41130   1.68305
C     2.13741  -2.05985   1.22214
C     1.53223  -2.66165   0.06921
C     1.11769  -1.94085   2.21178
N    -1.07595   0.10742  -0.50828
C    -2.34771   0.29120   0.20669
C    -3.13870   1.50864  -0.25039
H    -3.97018   1.66540   0.43488
H    -3.57261   1.38540  -1.24359
H    -2.53227   2.41463  -0.24228
C    -3.17513  -0.98492   0.09872
H    -2.06751   0.44251   1.25029
H    -4.07883  -0.89467   0.70015
H    -3.47761  -1.17031  -0.93272
H    -2.62961  -1.85777   0.45373
C    -0.92822   0.47946  -1.72723
C     0.38734   0.31027  -2.26295
H    -1.73848   0.92031  -2.29872
C     1.41103   0.02079  -1.35849
C     2.63076  -0.19727  -2.07290
S     0.89433   0.34374  -3.88164
C     2.49552  -0.04895  -3.42029
H     1.63266   1.16229  -0.66768
H     3.58139  -0.39770  -1.59998
H     3.26439  -0.13151  -4.17346
H    -0.55861  -3.30099  -0.33837
H    -1.04235  -2.46644   2.21037
H     1.24526  -1.49372   3.18751
O     1.75027   2.30256   0.05880
O     0.59399   1.04058   1.48158
C     1.16013   2.12266   1.14767
C     1.13979   3.24746   2.13917
H     1.01887   4.20291   1.63376
H     2.09895   3.27695   2.65904
H     0.35558   3.11283   2.87854
H     3.18334  -1.83144   1.35618
H     2.03409  -2.91666  -0.85285
