39
Coordinates from ORCA-job reaction4-IEIP_ts_guess_scan_11-2_orca E -1288.398587011995
  Ir      0.636950     -0.708062      0.403411
  C       0.148467     -2.824435      0.294530
  C       0.035146     -2.376946      1.657279
  C       2.223734     -2.070642      0.975442
  C       1.480837     -2.635152     -0.124028
  C       1.329152     -1.943111      2.065626
  N      -1.051107      0.141174     -0.521747
  C      -2.307224      0.406636      0.195882
  C      -3.085291      1.592053     -0.355905
  H      -3.901193      1.826676      0.326305
  H      -3.540640      1.386014     -1.325478
  H      -2.463650      2.483588     -0.440958
  C      -3.152769     -0.861971      0.217756
  H      -2.001940      0.641170      1.216350
  H      -4.042580     -0.701139      0.824757
  H      -3.478742     -1.136640     -0.786258
  H      -2.611870     -1.704911      0.645395
  C      -0.907582      0.403442     -1.761603
  C       0.418056      0.191398     -2.261590
  H      -1.711221      0.795071     -2.377336
  C       1.471748      0.180914     -1.341195
  C       2.692174     -0.138083     -2.017926
  S       0.893743     -0.177483     -3.844028
  C       2.528478     -0.354366     -3.349326
  H       1.511886      1.172210     -0.643167
  H       3.659354     -0.149335     -1.536630
  H       3.285995     -0.584060     -4.083225
  H      -0.649802     -3.233151     -0.307990
  H      -0.843079     -2.429463      2.282859
  H       1.571131     -1.516186      3.028668
  O       1.447051      2.424217      0.127144
  O       0.563188      0.976941      1.569541
  C       0.986740      2.141940      1.237099
  C       0.923018      3.182074      2.320094
  H       0.877432      4.181017      1.894835
  H       1.830625      3.118879      2.923367
  H       0.077629      3.018680      2.984530
  H       3.278618     -1.843522      0.987930
  H       1.876908     -2.876246     -1.099671
39
Coordinates from ORCA-job reaction4-IEIP_ts_guess_scan_11-2_orca E -1288.398560871821
  Ir      0.633405     -0.700369      0.398811
  C       0.150977     -2.820864      0.296581
  C       0.037463     -2.372747      1.658966
  C       2.223695     -2.059143      0.975244
  C       1.482496     -2.628438     -0.122816
  C       1.328960     -1.932815      2.065177
  N      -1.061030      0.139326     -0.525215
  C      -2.317076      0.404111      0.192974
  C      -3.099539      1.584368     -0.363701
  H      -3.915750      1.819312      0.317996
  H      -3.554798      1.372282     -1.332019
  H      -2.481089      2.477703     -0.453314
  C      -3.158697     -0.866923      0.221625
  H      -2.011592      0.644422      1.212058
  H      -4.048600     -0.705964      0.828457
  H      -3.484579     -1.147401     -0.780827
  H      -2.614983     -1.706173      0.652906
  C      -0.917232      0.395764     -1.771075
  C       0.411874      0.186959     -2.273576
  H      -1.722559      0.781848     -2.388046
  C       1.464139      0.181922     -1.351121
  C       2.687172     -0.133967     -2.025360
  S       0.891483     -0.183736     -3.854401
  C       2.526161     -0.355285     -3.356247
  H       1.503460      1.192550     -0.670738
  H       3.653956     -0.138624     -1.543000
  H       3.285700     -0.584579     -4.088093
  H      -0.646047     -3.233846     -0.304725
  H      -0.839925     -2.427724      2.285425
  H       1.569912     -1.503836      3.027560
  O       1.555720      2.394918      0.175832
  O       0.548398      0.986058      1.568955
  C       1.023657      2.136077      1.259479
  C       0.935268      3.182553      2.334276
  H       0.946412      4.180632      1.904636
  H       1.805742      3.091922      2.986755
  H       0.049639      3.049983      2.951374
  H       3.278058     -1.829682      0.987698
  H       1.879121     -2.871404     -1.097772
39
Coordinates from ORCA-job reaction4-IEIP_ts_guess_scan_11-2_orca E -1288.398282502010
  Ir      0.642725     -0.707130      0.400648
  C       0.146058     -2.829001      0.296703
  C       0.037583     -2.388589      1.661792
  C       2.222821     -2.081865      0.976088
  C       1.478272     -2.643280     -0.123495
  C       1.329095     -1.955051      2.066633
  N      -1.051408      0.145058     -0.512710
  C      -2.307132      0.408691      0.206311
  C      -3.083826      1.596677     -0.342141
  H      -3.901152      1.828431      0.339253
  H      -3.536923      1.394578     -1.313633
  H      -2.462257      2.488791     -0.422199
  C      -3.154332     -0.858790      0.222046
  H      -2.002656      0.638835      1.228070
  H      -4.045179     -0.699217      0.827861
  H      -3.478898     -1.129250     -0.783612
  H      -2.615567     -1.704122      0.647542
  C      -0.898930      0.415536     -1.764285
  C       0.434936      0.204752     -2.275161
  H      -1.701526      0.812691     -2.377655
  C       1.484506      0.166105     -1.348547
  C       2.704889     -0.160999     -2.023994
  S       0.914864     -0.147074     -3.860134
  C       2.544640     -0.359100     -3.358420
  H       1.556983      1.199426     -0.681642
  H       3.670315     -0.187138     -1.539306
  H       3.302792     -0.590920     -4.090751
  H      -0.653531     -3.236285     -0.305163
  H      -0.838819     -2.442201      2.289562
  H       1.573231     -1.531928      3.030793
  O       1.368324      2.424756      0.110871
  O       0.559998      0.977121      1.585015
  C       0.952281      2.146581      1.240465
  C       0.906244      3.193439      2.316700
  H       0.829200      4.188468      1.886608
  H       1.834001      3.150059      2.890216
  H       0.085849      3.019630      3.008951
  H       3.278922     -1.860837      0.990341
  H       1.872979     -2.887657     -1.098880
39
Coordinates from ORCA-job reaction4-IEIP_ts_guess_scan_11-2_orca E -1288.398896544402
  Ir      0.635658     -0.707688      0.402898
  C       0.140288     -2.826625      0.306422
  C       0.031384     -2.378837      1.668988
  C       2.217608     -2.075750      0.981389
  C       1.472481     -2.642018     -0.115267
  C       1.324341     -1.944078      2.072175
  N      -1.054505      0.140024     -0.518442
  C      -2.311663      0.401115      0.197511
  C      -3.091681      1.585083     -0.354721
  H      -3.910471      1.816060      0.325264
  H      -3.543143      1.378912     -1.326099
  H      -2.472710      2.478772     -0.436542
  C      -3.154099     -0.869611      0.215671
  H      -2.008625      0.634729      1.218838
  H      -4.045897     -0.711788      0.820571
  H      -3.476870     -1.143750     -0.789517
  H      -2.612294     -1.711788      0.643645
  C      -0.907314      0.408379     -1.762901
  C       0.421952      0.201970     -2.269868
  H      -1.711742      0.802487     -2.375809
  C       1.473186      0.170642     -1.345787
  C       2.695494     -0.142393     -2.023749
  S       0.901221     -0.145476     -3.855665
  C       2.535284     -0.333523     -3.359330
  H       1.526838      1.182845     -0.659746
  H       3.661475     -0.162612     -1.540208
  H       3.294516     -0.552197     -4.094780
  H      -0.659585     -3.236052     -0.293494
  H      -0.845389     -2.428658      2.296667
  H       1.568705     -1.515674      3.033939
  O       1.465026      2.424129      0.127969
  O       0.564269      0.981962      1.567443
  C       0.996282      2.143631      1.236541
  C       0.931171      3.186477      2.315802
  H       0.892602      4.184705      1.888128
  H       1.834776      3.120317      2.924635
  H       0.080823      3.027849      2.974894
  H       3.273406     -1.853083      0.993416
  H       1.866571     -2.889299     -1.090139
39
Coordinates from ORCA-job reaction4-IEIP_ts_guess_scan_11-2_orca E -1288.398939515840
  Ir      0.635557     -0.708380      0.403391
  C       0.140297     -2.827290      0.309615
  C       0.030713     -2.379124      1.671841
  C       2.217134     -2.075831      0.984745
  C       1.472752     -2.643011     -0.111751
  C       1.323134     -1.943628      2.074961
  N      -1.054344      0.138595     -0.519514
  C      -2.311701      0.399486      0.196407
  C      -3.092316      1.583647     -0.354718
  H      -3.910850      1.814000      0.325765
  H      -3.544245      1.377953     -1.325957
  H      -2.473632      2.477566     -0.436262
  C      -3.154367     -0.871140      0.214440
  H      -2.008545      0.632715      1.217879
  H      -4.046297     -0.713213      0.819140
  H      -3.476926     -1.145136     -0.790849
  H      -2.612837     -1.713391      0.642495
  C      -0.907263      0.408590     -1.763269
  C       0.421239      0.203457     -2.271231
  H      -1.711874      0.803878     -2.375098
  C       1.472144      0.167326     -1.347059
  C       2.694398     -0.142669     -2.026347
  S       0.901631     -0.129006     -3.859710
  C       2.533970     -0.329169     -3.362569
  H       1.528234      1.183488     -0.665507
  H       3.660085     -0.167637     -1.542497
  H       3.292848     -0.546990     -4.098616
  H      -0.659155     -3.237321     -0.290444
  H      -0.846447     -2.428278      2.299018
  H       1.567034     -1.514364      3.036467
  O       1.473877      2.419648      0.130769
  O       0.562441      0.982881      1.566797
  C       0.997575      2.142862      1.237056
  C       0.932572      3.187301      2.315086
  H       0.899534      4.185253      1.886328
  H       1.833618      3.118266      2.927436
  H       0.079139      3.032664      2.971165
  H       3.272969     -1.853384      0.997484
  H       1.867277     -2.891423     -1.086151
39
Coordinates from ORCA-job reaction4-IEIP_ts_guess_scan_11-2_orca E -1288.398992184602
  Ir      0.635233     -0.713053      0.406078
  C       0.135449     -2.830660      0.319979
  C       0.026070     -2.380870      1.681371
  C       2.213223     -2.082124      0.994028
  C       1.468723     -2.650253     -0.101500
  C       1.318386     -1.946139      2.083384
  N      -1.052731      0.135734     -0.520134
  C      -2.310903      0.395017      0.195452
  C      -3.092407      1.580368     -0.352073
  H      -3.910806      1.808237      0.329347
  H      -3.544722      1.377178     -1.323642
  H      -2.474365      2.474968     -0.431256
  C      -3.153952     -0.875494      0.210487
  H      -2.008275      0.625816      1.217756
  H      -4.046677     -0.718354      0.814235
  H      -3.475193     -1.147643     -0.795728
  H      -2.613281     -1.718571      0.637840
  C      -0.905197      0.411410     -1.762379
  C       0.421480      0.207693     -2.273073
  H      -1.710098      0.809955     -2.371669
  C       1.471119      0.155568     -1.348233
  C       2.693930     -0.143811     -2.031318
  S       0.903175     -0.097489     -3.866193
  C       2.535394     -0.303208     -3.371321
  H       1.533091      1.179288     -0.673624
  H       3.658902     -0.179014     -1.546757
  H       3.295128     -0.506516     -4.110608
  H      -0.664266     -3.240596     -0.279813
  H      -0.851754     -2.426240      2.307855
  H       1.562697     -1.514862      3.043896
  O       1.483954      2.412646      0.127323
  O       0.564650      0.983720      1.564258
  C       1.004142      2.140336      1.233602
  C       0.936074      3.190730      2.306074
  H       0.905652      4.186609      1.872341
  H       1.834753      3.123797      2.922132
  H       0.080016      3.040172      2.959734
  H       3.269632     -1.862522      1.007801
  H       1.863123     -2.902631     -1.074910
39
Coordinates from ORCA-job reaction4-IEIP_ts_guess_scan_11-2_orca E -1288.399016949488
  Ir      0.633530     -0.717744      0.409169
  C       0.128670     -2.833287      0.330861
  C       0.019192     -2.380916      1.691252
  C       2.207553     -2.088075      1.004377
  C       1.462999     -2.657295     -0.090298
  C       1.311664     -1.947289      2.092604
  N      -1.051631      0.132914     -0.520118
  C      -2.311047      0.388300      0.194791
  C      -3.094035      1.574160     -0.349505
  H      -3.913148      1.798318      0.332245
  H      -3.545548      1.373435     -1.321990
  H      -2.477512      2.470109     -0.425394
  C      -3.152504     -0.883356      0.204743
  H      -2.010122      0.616353      1.218217
  H      -4.046809     -0.728848      0.806800
  H      -3.471060     -1.153267     -0.802939
  H      -2.611805     -1.726899      0.631131
  C      -0.903424      0.416616     -1.760346
  C       0.422134      0.216162     -2.273187
  H      -1.708447      0.819564     -2.366645
  C       1.470274      0.144786     -1.347737
  C       2.693739     -0.143978     -2.034567
  S       0.906842     -0.053445     -3.871424
  C       2.537020     -0.276338     -3.377777
  H       1.537380      1.171223     -0.673198
  H       3.657608     -0.193395     -1.549060
  H       3.297266     -0.467644     -4.119743
  H      -0.671276     -3.243015     -0.268791
  H      -0.859536     -2.421878      2.316728
  H       1.556249     -1.513447      3.051899
  O       1.488817      2.411360      0.117247
  O       0.568632      0.985569      1.558843
  C       1.007714      2.140688      1.224092
  C       0.945393      3.193733      2.294424
  H       0.915620      4.188674      1.858558
  H       1.845890      3.126300      2.907753
  H       0.091094      3.046275      2.951052
  H       3.264538     -1.871383      1.019256
  H       1.857455     -2.913851     -1.062580
39
Coordinates from ORCA-job reaction4-IEIP_ts_guess_scan_11-2_orca E -1288.399021002176
  Ir      0.633274     -0.719385      0.410002
  C       0.125886     -2.833757      0.333346
  C       0.015841     -2.380187      1.693407
  C       2.205281     -2.090756      1.008149
  C       1.460942     -2.659871     -0.086751
  C       1.308599     -1.947806      2.095501
  N      -1.050770      0.132895     -0.519335
  C      -2.310458      0.386078      0.195851
  C      -3.094433      1.571725     -0.347434
  H      -3.913726      1.794391      0.334594
  H      -3.545754      1.371560     -1.320141
  H      -2.478783      2.468340     -0.422475
  C      -3.150635     -0.886429      0.203746
  H      -2.010163      0.613315      1.219611
  H      -4.045700     -0.733389      0.805061
  H      -3.467932     -1.155704     -0.804497
  H      -2.609589     -1.729903      0.629800
  C      -0.902512      0.420667     -1.758854
  C       0.422605      0.220579     -2.272861
  H      -1.707559      0.825685     -2.363699
  C       1.470645      0.140258     -1.348020
  C       2.693582     -0.146259     -2.036610
  S       0.907318     -0.037402     -3.873020
  C       2.536981     -0.266502     -3.381048
  H       1.541240      1.165892     -0.671088
  H       3.657181     -0.202366     -1.551287
  H       3.297030     -0.453232     -4.124383
  H      -0.673960     -3.243016     -0.266749
  H      -0.863507     -2.419388      2.318124
  H       1.553001     -1.513230      3.054512
  O       1.497329      2.408448      0.115823
  O       0.570590      0.985911      1.557088
  C       1.013924      2.139478      1.222231
  C       0.945787      3.195744      2.288865
  H       0.916618      4.189218      1.849590
  H       1.843879      3.131291      2.905965
  H       0.088950      3.049378      2.942377
  H       3.262521     -1.875359      1.023851
  H       1.855846     -2.917724     -1.058504
39
Coordinates from ORCA-job reaction4-IEIP_ts_guess_scan_11-2_orca E -1288.399024567793
  Ir      0.632928     -0.719868      0.410501
  C       0.124691     -2.833610      0.334445
  C       0.012818     -2.378643      1.694083
  C       2.203671     -2.091394      1.012122
  C       1.460604     -2.660815     -0.083542
  C       1.305430     -1.946924      2.097989
  N      -1.050596      0.133307     -0.518979
  C      -2.310685      0.384332      0.196337
  C      -3.096142      1.569149     -0.346658
  H      -3.915627      1.790560      0.335558
  H      -3.547309      1.368694     -1.319384
  H      -2.481677      2.466584     -0.421554
  C      -3.149246     -0.889233      0.202958
  H      -2.011071      0.611528      1.220282
  H      -4.045171     -0.737520      0.803357
  H      -3.465146     -1.158630     -0.805683
  H      -2.607728     -1.732227      0.629269
  C      -0.902204      0.424338     -1.757972
  C       0.422586      0.224116     -2.272726
  H      -1.707240      0.830643     -2.361872
  C       1.470715      0.136813     -1.348768
  C       2.692930     -0.148702     -2.038681
  S       0.906559     -0.028045     -3.874191
  C       2.536264     -0.259120     -3.384068
  H       1.544687      1.160799     -0.668699
  H       3.656454     -0.209464     -1.553776
  H       3.296175     -0.441834     -4.128543
  H      -0.674343     -3.243017     -0.266606
  H      -0.867433     -2.416992      2.317591
  H       1.548696     -1.511636      3.056967
  O       1.505597      2.404856      0.116092
  O       0.570200      0.986674      1.556038
  C       1.016236      2.139268      1.220686
  C       0.948421      3.196824      2.285886
  H       0.922371      4.189708      1.845060
  H       1.845204      3.131231      2.904745
  H       0.089946      3.053284      2.937816
  H       3.260981     -1.876422      1.029215
  H       1.856825     -2.919422     -1.054555
39
Coordinates from ORCA-job reaction4-IEIP_ts_guess_scan_11-2_orca E -1288.399029740779
  Ir      0.633160     -0.719541      0.410441
  C       0.125555     -2.833335      0.333610
  C       0.011517     -2.377614      1.692969
  C       2.203533     -2.090765      1.014504
  C       1.462122     -2.660435     -0.082163
  C       1.303641     -1.946039      2.098951
  N      -1.050492      0.133989     -0.518739
  C      -2.310748      0.383870      0.196811
  C      -3.097345      1.568202     -0.345723
  H      -3.916744      1.788863      0.336838
  H      -3.548735      1.367527     -1.318297
  H      -2.483660      2.466166     -0.420725
  C      -3.148509     -0.890212      0.202804
  H      -2.011316      0.611031      1.220817
  H      -4.044906     -0.739158      0.802684
  H      -3.463671     -1.159673     -0.806046
  H      -2.606870     -1.733007      0.629275
  C      -0.902078      0.426878     -1.757369
  C       0.422407      0.226545     -2.272651
  H      -1.707048      0.834219     -2.360590
  C       1.470868      0.135347     -1.349738
  C       2.692167     -0.150770     -2.040596
  S       0.905409     -0.022304     -3.875156
  C       2.534461     -0.258811     -3.386164
  H       1.547737      1.157325     -0.666470
  H       3.655831     -0.214310     -1.556341
  H       3.293716     -0.441843     -4.131228
  H      -0.672403     -3.243203     -0.268536
  H      -0.869515     -2.416272      2.315364
  H       1.545411     -1.510554      3.058217
  O       1.513522      2.401441      0.118455
  O       0.569295      0.986918      1.556002
  C       1.019164      2.138423      1.221344
  C       0.948324      3.197416      2.284796
  H       0.924372      4.189620      1.842286
  H       1.843032      3.132274      2.906666
  H       0.087543      3.055408      2.934002
  H       3.260756     -1.875481      1.033015
  H       1.859866     -2.918944     -1.052581
39
Coordinates from ORCA-job reaction4-IEIP_ts_guess_scan_11-2_orca E -1288.399036441835
  Ir      0.633205     -0.718524      0.410508
  C       0.127546     -2.832936      0.332581
  C       0.008432     -2.375792      1.691232
  C       2.202805     -2.088715      1.020547
  C       1.465487     -2.659418     -0.078228
  C       1.298972     -1.943862      2.101732
  N      -1.050651      0.135096     -0.518311
  C      -2.311428      0.382538      0.197188
  C      -3.100436      1.565745     -0.344519
  H      -3.920020      1.784502      0.338401
  H      -3.551789      1.364566     -1.317014
  H      -2.488603      2.465001     -0.419311
  C      -3.147383     -0.892735      0.201688
  H      -2.012627      0.609582      1.221421
  H      -4.044876     -0.743221      0.800337
  H      -3.460794     -1.162211     -0.807704
  H      -2.605425     -1.735124      0.628494
  C      -0.902136      0.431317     -1.756189
  C       0.421480      0.231208     -2.272856
  H      -1.707172      0.840590     -2.357994
  C       1.470430      0.132087     -1.351971
  C       2.689978     -0.154555     -2.045020
  S       0.902370     -0.010536     -3.877526
  C       2.530327     -0.256526     -3.391034
  H       1.554096      1.150859     -0.663072
  H       3.653976     -0.223286     -1.562169
  H       3.288413     -0.439138     -4.137386
  H      -0.667829     -3.244204     -0.271997
  H      -0.874344     -2.415472      2.311092
  H       1.537073     -1.507832      3.061673
  O       1.530853      2.394057      0.123706
  O       0.567134      0.987995      1.556043
  C       1.025739      2.136667      1.222903
  C       0.950783      3.198560      2.283076
  H       0.931518      4.189527      1.837501
  H       1.841818      3.133505      2.910161
  H       0.085887      3.060234      2.927557
  H       3.259778     -1.872530      1.042416
  H       1.866782     -2.917828     -1.047216
39
Coordinates from ORCA-job reaction4-IEIP_ts_guess_scan_11-2_orca E -1288.399038822720
  Ir      0.632790     -0.717748      0.410651
  C       0.128936     -2.832871      0.332355
  C       0.006338     -2.375064      1.690542
  C       2.202062     -2.086781      1.024901
  C       1.467722     -2.658579     -0.075178
  C       1.295492     -1.942239      2.103921
  N      -1.051312      0.135451     -0.518143
  C      -2.312550      0.381315      0.197028
  C      -3.102848      1.563925     -0.344155
  H      -3.922816      1.781282      0.338732
  H      -3.553799      1.362651     -1.316823
  H      -2.492160      2.464010     -0.418345
  C      -3.147378     -0.894726      0.200282
  H      -2.014354      0.608065      1.221520
  H      -4.045526     -0.746381      0.798249
  H      -3.459720     -1.163873     -0.809534
  H      -2.605128     -1.736962      0.626989
  C      -0.902675      0.433301     -1.755621
  C       0.420426      0.233698     -2.273151
  H      -1.707866      0.843397     -2.356676
  C       1.469587      0.130286     -1.353272
  C       2.688321     -0.156222     -2.047630
  S       0.900214     -0.003857     -3.878969
  C       2.527767     -0.254051     -3.393922
  H       1.557737      1.147460     -0.661404
  H       3.652509     -0.227542     -1.565536
  H       3.285347     -0.435747     -4.141009
  H      -0.664610     -3.245296     -0.273818
  H      -0.877613     -2.415646      2.308665
  H       1.530932     -1.505704      3.064296
  O       1.542186      2.389888      0.126780
  O       0.565930      0.989142      1.555748
  C       1.030596      2.135693      1.223702
  C       0.954612      3.199168      2.282239
  H       0.938025      4.189532      1.835176
  H       1.844057      3.133770      2.911528
  H       0.087880      3.063144      2.924713
  H       3.258814     -1.869782      1.049087
  H       1.871444     -2.916920     -1.043178
39
Coordinates from ORCA-job reaction4-IEIP_ts_guess_scan_11-2_orca E -1288.399040987543
  Ir      0.631649     -0.716486      0.410801
  C       0.131370     -2.832893      0.331809
  C       0.002945     -2.374536      1.689345
  C       2.200663     -2.082965      1.031863
  C       1.471473     -2.656839     -0.070348
  C       1.289536     -1.939545      2.107398
  N      -1.052848      0.135627     -0.518040
  C      -2.314757      0.379223      0.196567
  C      -3.106626      1.561158     -0.343796
  H      -3.927308      1.776399      0.338881
  H      -3.556761      1.360041     -1.316884
  H      -2.497451      2.462364     -0.416737
  C      -3.147969     -0.897934      0.197824
  H      -2.017502      0.605316      1.221503
  H      -4.046825     -0.751541      0.795215
  H      -3.459124     -1.166170     -0.812610
  H      -2.605024     -1.740082      0.623806
  C      -0.904118      0.435296     -1.755033
  C       0.418330      0.236707     -2.273711
  H      -1.709671      0.846043     -2.355208
  C       1.467771      0.128239     -1.355029
  C       2.685595     -0.157878     -2.051112
  S       0.896718      0.004241     -3.880860
  C       2.524001     -0.250176     -3.397734
  H       1.562766      1.143249     -0.659392
  H       3.650035     -0.232068     -1.569956
  H       3.281030     -0.430255     -4.145770
  H      -0.659072     -3.247294     -0.277041
  H      -0.883014     -2.416778      2.304467
  H       1.520388     -1.502109      3.068488
  O       1.559212      2.384300      0.131103
  O       0.564069      0.991289      1.554684
  C       1.038351      2.134397      1.224663
  C       0.962284      3.199834      2.281321
  H       0.948873      4.189483      1.832514
  H       1.850337      3.133850      2.912502
  H       0.093830      3.066863      2.922060
  H       3.256981     -1.864359      1.059944
  H       1.879236     -2.914822     -1.036757
39
Coordinates from ORCA-job reaction4-IEIP_ts_guess_scan_11-2_orca E -1288.399041939782
  Ir      0.630326     -0.715503      0.410802
  C       0.133984     -2.833043      0.330761
  C      -0.000115     -2.374711      1.687836
  C       2.199369     -2.078955      1.038146
  C       1.475315     -2.654878     -0.066204
  C       1.283846     -1.937164      2.110406
  N      -1.054629      0.135454     -0.518093
  C      -2.317025      0.377271      0.196166
  C      -3.109787      1.558993     -0.343304
  H      -3.931075      1.772537      0.339168
  H      -3.559202      1.358454     -1.316851
  H      -2.501545      2.460925     -0.414893
  C      -3.149094     -0.900684      0.195548
  H      -2.020491      0.602507      1.221510
  H      -4.048158     -0.756097      0.793066
  H      -3.459867     -1.167615     -0.815356
  H      -2.605350     -1.743005      0.620164
  C      -0.905951      0.436225     -1.754788
  C       0.416153      0.238557     -2.274204
  H      -1.711884      0.846988     -2.354481
  C       1.465861      0.127215     -1.356265
  C       2.683135     -0.158595     -2.053561
  S       0.893562      0.008960     -3.882083
  C       2.520888     -0.247359     -3.400352
  H       1.566709      1.140539     -0.658156
  H       3.647756     -0.234295     -1.573000
  H       3.277553     -0.426151     -4.149064
  H      -0.653399     -3.249294     -0.280765
  H      -0.888126     -2.418568      2.299871
  H       1.510157     -1.498878      3.072195
  O       1.573672      2.380200      0.134495
  O       0.562396      0.993482      1.553023
  C       1.045219      2.133545      1.225193
  C       0.969976      3.200234      2.280739
  H       0.958025      4.189393      1.830756
  H       1.857857      3.134130      2.912140
  H       0.101098      3.069179      2.921250
  H       3.255216     -1.858635      1.070071
  H       1.886996     -2.912169     -1.031145
