! Opt PBEh-3c
%geom Constraints
{ B 0 20 2.342857142857143 C }
{ B 24 30 1.4857142857142858 C }
    end
end
%output 
xyzfile=True 
end 
%scf 
maxiter 250 
end
%output
Print[P_Hirshfeld] = 1
end
% maxcore
4000
*xyz 1 1
Ir   0.60814652  -0.70811714   0.42110778 
C    0.05759013  -2.79730116   0.33622372 
C    0.13143449  -2.33836338   1.70043238 
C    2.21991601  -2.11522501   0.75259245 
C    1.32491401  -2.63940161  -0.25408413 
C    1.49306558  -1.96605361   1.94829723 
N   -1.04879459   0.17439456  -0.53031890 
C   -2.31268927   0.49752262   0.14817018 
C   -3.12473649   1.56999555  -0.55964165 
H   -3.95020621   1.86904536   0.08488478 
H   -3.57072540   1.22060184  -1.49230736 
H   -2.53353483   2.46330162  -0.76352804 
C   -3.12039764  -0.77836914   0.35321703 
H   -2.01123031   0.87948922   1.12475226 
H   -4.02730825  -0.54999175   0.91097504 
H   -3.41720892  -1.21735496  -0.60018833 
H   -2.56907176  -1.52462504   0.92346063 
C   -0.85794713   0.38699175  -1.77414937 
C    0.49160639   0.15214333  -2.23991453 
H   -1.63713517   0.75651997  -2.43423310 
C    1.58483693   0.44177239  -1.42698922 
C    2.79469571   0.02329046  -2.05726239 
S    0.93030465  -0.58756566  -3.70833062 
C    2.59361855  -0.54166949  -3.27596220 
H    1.53087862   1.34211176  -0.68490152 
H    3.77636395   0.18804585  -1.63741651 
H    3.33469861  -0.91517705  -3.96631736 
H   -0.82828799  -3.16760096  -0.15948413 
H   -0.66060293  -2.36699335   2.43401658 
H    1.87379240  -1.56000792   2.87448250 
O    1.30624682   2.48768620   0.25701129 
O    0.53239304   0.91914152   1.64097778 
C    0.90119646   2.12521970   1.35713794 
C    0.83012015   3.08358212   2.51406823 
H    0.79153080   4.11028438   2.16046782 
H    1.72871360   2.97342520   3.12422474 
H   -0.02295148   2.87861094   3.15766367 
H    3.26702645  -1.89065442   0.61509277 
H    1.58910855  -2.87951473  -1.27348735 
*
