39
Generated by autodE on: 2023-08-13. E = -1288.398563 Ha
Ir    0.58703  -0.72439   0.45541
C     0.03403  -2.80559   0.32800
C     0.12682  -2.36017   1.69862
C     2.20310  -2.13686   0.73295
C     1.29362  -2.63984  -0.27244
C     1.49725  -2.00669   1.94081
N    -1.04020   0.18422  -0.51761
C    -2.30779   0.53013   0.14362
C    -3.12975   1.55755  -0.61683
H    -3.96101   1.87619   0.01051
H    -3.56751   1.15764  -1.53299
H    -2.55001   2.44823  -0.86134
C    -3.10510  -0.73989   0.41356
H    -2.01006   0.96380   1.09981
H    -4.01559  -0.48988   0.95594
H    -3.39614  -1.23074  -0.51613
H    -2.55118  -1.45080   1.02511
C    -0.82693   0.38718  -1.75832
C     0.52676   0.14157  -2.21691
H    -1.59580   0.75677  -2.43084
C     1.64016   0.55226  -1.49397
C     2.83756   0.10775  -2.12564
S     0.93633  -0.71846  -3.63602
C     2.61041  -0.58023  -3.27525
H     1.55623   1.40757  -0.72212
H     3.82806   0.33893  -1.76177
H     3.33909  -0.99949  -3.95246
H    -0.85990  -3.16503  -0.16107
H    -0.65662  -2.39642   2.44155
H     1.89175  -1.61974   2.86937
O     1.24462   2.47709   0.28238
O     0.54266   0.88673   1.68194
C     0.87431   2.10558   1.38868
C     0.80140   3.05720   2.55121
H     0.73090   4.08339   2.20091
H     1.71394   2.96842   3.14385
H    -0.03376   2.83043   3.21082
H     3.24587  -1.90185   0.57868
H     1.54483  -2.85338  -1.30131
