! Opt PBEh-3c
%geom Constraints
{ B 0 20 2.3857142857142857 C }
{ B 24 30 1.4285714285714286 C }
    end
end
%output 
xyzfile=True 
end 
%scf 
maxiter 250 
end
%output
Print[P_Hirshfeld] = 1
end
% maxcore
4000
*xyz 1 1
Ir   0.59674386  -0.71754812   0.45072763 
C    0.04625105  -2.80316761   0.34897666 
C    0.10875945  -2.35010960   1.71595138 
C    2.20604803  -2.12575361   0.78801363 
C    1.31852867  -2.64222271  -0.22948462 
C    1.46962630  -1.98218110   1.97815976 
N   -1.04617143   0.16347769  -0.52199616 
C   -2.31629390   0.48086724   0.14931852 
C   -3.12163254   1.56213498  -0.55329714 
H   -3.94965865   1.85779634   0.08953884 
H   -3.56380255   1.22272993  -1.49136606 
H   -2.52661821   2.45524765  -0.74641279 
C   -3.12821157  -0.79535212   0.33469342 
H   -2.02362052   0.85308884   1.13240271 
H   -4.04059286  -0.57079977   0.88509592 
H   -3.41574229  -1.22521532  -0.62569822 
H   -2.58421556  -1.54793706   0.90364645 
C   -0.85407248   0.37625421  -1.76658401 
C    0.49372785   0.16037263  -2.24146590 
H   -1.63990362   0.73589296  -2.42448188 
C    1.58941119   0.44874868  -1.43403299 
C    2.79733609   0.05028067  -2.07696619 
S    0.92952940  -0.54250468  -3.73109571 
C    2.59314678  -0.49224334  -3.30670591 
H    1.52802133   1.34846062  -0.65902589 
H    3.78074499   0.21211402  -1.66005787 
H    3.33348207  -0.84615720  -4.00817571 
H   -0.83558136  -3.16974260  -0.15662324 
H   -0.68976216  -2.38209250   2.44238774 
H    1.84323619  -1.58250720   2.91000622 
O    1.33192684   2.45515980   0.24573961 
O    0.53384907   0.92259535   1.65542622 
C    0.91830399   2.11643210   1.35331376 
C    0.86294825   3.09914957   2.48909988 
H    0.82549246   4.11843603   2.11459617 
H    1.76786288   2.99764092   3.09146213 
H    0.01586685   2.91073640   3.14532905 
H    3.25401025  -1.89966648   0.65938553 
H    1.59039590  -2.87322561  -1.24906091 
*
