39
Coordinates from ORCA-job reaction4-IEIP_ts_guess_scan_0-1_orca E -1288.397418566607
  Ir      0.580635     -0.729861      0.471309
  C       0.032042     -2.811119      0.329865
  C       0.121176     -2.370293      1.702611
  C       2.199095     -2.140386      0.743564
  C       1.292304     -2.639971     -0.266171
  C       1.491158     -2.017507      1.950574
  N      -1.037938      0.182341     -0.511624
  C      -2.307547      0.530388      0.145223
  C      -3.124435      1.560278     -0.617315
  H      -3.956064      1.881574      0.008205
  H      -3.561755      1.162307     -1.534530
  H      -2.541202      2.449034     -0.860473
  C      -3.107928     -0.738439      0.410934
  H      -2.012919      0.963333      1.102719
  H      -4.020345     -0.487534      0.949673
  H      -3.395717     -1.227791     -0.520569
  H      -2.558240     -1.451359      1.024065
  C      -0.822413      0.382219     -1.752387
  C       0.531126      0.138956     -2.213139
  H      -1.591980      0.749149     -2.425723
  C       1.647103      0.573684     -1.509452
  C       2.842604      0.131878     -2.145191
  S       0.936260     -0.735907     -3.626030
  C       2.611637     -0.575683     -3.282579
  H       1.556110      1.418872     -0.729846
  H       3.834139      0.377642     -1.794013
  H       3.338409     -0.998186     -3.959836
  H      -0.860210     -3.170096     -0.162577
  H      -0.664453     -2.409746      2.443161
  H       1.883027     -1.635039      2.882110
  O       1.230004      2.459849      0.278802
  O       0.545749      0.879131      1.696940
  C       0.870547      2.097372      1.391340
  C       0.804779      3.057521      2.547244
  H       0.726789      4.080584      2.189417
  H       1.723436      2.977145      3.131606
  H      -0.022897      2.832810      3.216900
  H       3.241436     -1.901541      0.591916
  H       1.545848     -2.846418     -1.295987
39
Coordinates from ORCA-job reaction4-IEIP_ts_guess_scan_0-1_orca E -1288.397414432400
  Ir      0.578983     -0.730015      0.472755
  C       0.029127     -2.811116      0.335468
  C       0.118593     -2.367669      1.707422
  C       2.196604     -2.140889      0.747816
  C       1.289555     -2.641787     -0.261085
  C       1.488838     -2.015232      1.954654
  N      -1.039016      0.180274     -0.512512
  C      -2.309581      0.527230      0.143166
  C      -3.127064      1.555767     -0.620586
  H      -3.959771      1.876212      0.003920
  H      -3.562747      1.156653     -1.538074
  H      -2.544712      2.445153     -0.863559
  C      -3.108955     -0.742295      0.408889
  H      -2.016259      0.960788      1.100785
  H      -4.022061     -0.492090      0.946784
  H      -3.395513     -1.232582     -0.522489
  H      -2.558796     -1.454095      1.022890
  C      -0.822813      0.380804     -1.753251
  C       0.530825      0.139161     -2.215118
  H      -1.592515      0.748096     -2.426242
  C       1.647297      0.569546     -1.509628
  C       2.842268      0.133520     -2.150528
  S       0.934834     -0.724882     -3.635130
  C       2.610484     -0.565169     -3.293200
  H       1.555699      1.409388     -0.720056
  H       3.834101      0.376951     -1.798542
  H       3.336700     -0.981861     -3.974662
  H      -0.863362     -3.170432     -0.156307
  H      -0.666980     -2.405360      2.448119
  H       1.881022     -1.631116      2.885375
  O       1.255779      2.461133      0.285542
  O       0.544695      0.883640      1.695488
  C       0.881665      2.099617      1.393745
  C       0.810478      3.059473      2.549286
  H       0.743907      4.083323      2.191402
  H       1.722117      2.971955      3.143523
  H      -0.026107      2.840314      3.209612
  H       3.239066     -1.902932      0.595588
  H       1.542985     -2.850286     -1.290518
39
Coordinates from ORCA-job reaction4-IEIP_ts_guess_scan_0-1_orca E -1288.397426928498
  Ir      0.579735     -0.729705      0.471764
  C       0.029668     -2.810320      0.331759
  C       0.120056     -2.368971      1.704371
  C       2.197474     -2.140909      0.743727
  C       1.289787     -2.640020     -0.265535
  C       1.490547     -2.017042      1.951254
  N      -1.038177      0.181800     -0.511576
  C      -2.308822      0.528300      0.144337
  C      -3.126600      1.557074     -0.618832
  H      -3.959490      1.876827      0.005767
  H      -3.561903      1.158202     -1.536592
  H      -2.544534      2.446799     -0.861245
  C      -3.108277     -0.741342      0.409534
  H      -2.015497      0.961269      1.102238
  H      -4.021379     -0.491377      0.947542
  H      -3.394858     -1.231393     -0.521955
  H      -2.557941     -1.453179      1.023312
  C      -0.821460      0.382668     -1.752222
  C       0.532130      0.140032     -2.213236
  H      -1.590947      0.749320     -2.425803
  C       1.648592      0.572195     -1.508792
  C       2.843111      0.129732     -2.146064
  S       0.935780     -0.729217     -3.630275
  C       2.611153     -0.573988     -3.285608
  H       1.558496      1.420363     -0.724083
  H       3.835139      0.372530     -1.794161
  H       3.337274     -0.995759     -3.964040
  H      -0.863175     -3.168705     -0.160060
  H      -0.665000     -2.407871      2.445551
  H       1.883416     -1.634299      2.882246
  O       1.236209      2.466064      0.280898
  O       0.545898      0.883443      1.695457
  C       0.874081      2.101238      1.392156
  C       0.808425      3.059677      2.549011
  H       0.733632      4.083543      2.192802
  H       1.725691      2.976094      3.135096
  H      -0.021243      2.835631      3.216369
  H       3.239830     -1.902726      0.591109
  H       1.542551     -2.846790     -1.295484
39
Coordinates from ORCA-job reaction4-IEIP_ts_guess_scan_0-1_orca E -1288.397393889198
  Ir      0.579375     -0.727161      0.471325
  C       0.033038     -2.808363      0.328445
  C       0.121346     -2.368637      1.701649
  C       2.199306     -2.135862      0.743389
  C       1.293449     -2.635179     -0.267392
  C       1.491001     -2.014639      1.950323
  N      -1.039967      0.182297     -0.512867
  C      -2.310164      0.529984      0.143173
  C      -3.129014      1.556297     -0.622158
  H      -3.961583      1.877332      0.002206
  H      -3.564792      1.154673     -1.538490
  H      -2.547581      2.445644     -0.867453
  C      -3.108860     -0.739258      0.412568
  H      -2.016160      0.965696      1.099625
  H      -4.021644     -0.488126      0.950559
  H      -3.395956     -1.232087     -0.517297
  H      -2.557761     -1.449095      1.027980
  C      -0.824471      0.379500     -1.754243
  C       0.529019      0.136647     -2.214683
  H      -1.594686      0.743226     -2.428591
  C       1.644816      0.573231     -1.512060
  C       2.839874      0.130187     -2.147840
  S       0.933498     -0.741455     -3.626012
  C       2.608772     -0.579062     -3.284153
  H       1.553665      1.426413     -0.734400
  H       3.831589      0.377302     -1.798046
  H       3.335449     -1.001895     -3.961313
  H      -0.858708     -3.167600     -0.164736
  H      -0.664353     -2.409898      2.442020
  H       1.882313     -1.632345      2.882154
  O       1.265523      2.460508      0.292717
  O       0.540725      0.883602      1.695683
  C       0.882923      2.098673      1.398149
  C       0.808642      3.057226      2.554496
  H       0.748322      4.081888      2.197852
  H       1.716289      2.965165      3.154143
  H      -0.032847      2.840306      3.209313
  H       3.241397     -1.895701      0.592048
  H       1.547585     -2.840244     -1.297341
39
Coordinates from ORCA-job reaction4-IEIP_ts_guess_scan_0-1_orca E -1288.397423733945
  Ir      0.580004     -0.730370      0.473454
  C       0.029810     -2.810638      0.333233
  C       0.119348     -2.369592      1.705876
  C       2.197452     -2.141687      0.746734
  C       1.290334     -2.640450     -0.263160
  C       1.489723     -2.017816      1.953720
  N      -1.037903      0.181431     -0.511595
  C      -2.308174      0.529067      0.144177
  C      -3.125489      1.557498     -0.619941
  H      -3.958207      1.878213      0.004391
  H      -3.560998      1.157915     -1.537297
  H      -2.543063      2.446739     -0.863252
  C      -3.108144     -0.739951      0.410755
  H      -2.014382      0.962833      1.101575
  H      -4.021090     -0.488924      0.948513
  H      -3.395001     -1.230864     -0.520204
  H      -2.558184     -1.451403      1.025333
  C      -0.821603      0.381673     -1.752352
  C       0.531822      0.139779     -2.213664
  H      -1.591369      0.748147     -2.425737
  C       1.648322      0.570188     -1.508274
  C       2.842925      0.132274     -2.148424
  S       0.935213     -0.730761     -3.629982
  C       2.610885     -0.568215     -3.289950
  H       1.558358      1.415173     -0.724165
  H       3.834911      0.376847     -1.797603
  H       3.337015     -0.985657     -3.971022
  H      -0.862750     -3.168772     -0.159281
  H      -0.666190     -2.408631      2.446541
  H       1.882025     -1.635212      2.885010
  O       1.239249      2.461806      0.280861
  O       0.544446      0.881460      1.695038
  C       0.874142      2.098473      1.391694
  C       0.807552      3.058106      2.547763
  H       0.734974      4.081794      2.190622
  H       1.723493      2.973653      3.135813
  H      -0.023786      2.835839      3.213689
  H       3.239935     -1.903602      0.594800
  H       1.543766     -2.847175     -1.292947
39
Coordinates from ORCA-job reaction4-IEIP_ts_guess_scan_0-1_orca E -1288.397419453338
  Ir      0.579490     -0.729408      0.471989
  C       0.029263     -2.809800      0.332412
  C       0.120104     -2.368538      1.704978
  C       2.197257     -2.140672      0.743731
  C       1.289217     -2.639602     -0.265287
  C       1.490712     -2.016718      1.951459
  N      -1.038573      0.181535     -0.511908
  C      -2.309397      0.527290      0.143995
  C      -3.127820      1.555570     -0.619168
  H      -3.961010      1.874663      0.005360
  H      -3.562687      1.156365     -1.536988
  H      -2.546387      2.445732     -0.861493
  C      -3.108135     -0.742802      0.409254
  H      -2.016293      0.960366      1.101907
  H      -4.021426     -0.493268      0.947134
  H      -3.394353     -1.233172     -0.522180
  H      -2.557435     -1.454191      1.023236
  C      -0.821914      0.383322     -1.752442
  C       0.531686      0.142358     -2.214137
  H      -1.591674      0.750248     -2.425555
  C       1.648296      0.572307     -1.508715
  C       2.842675      0.128873     -2.145539
  S       0.935231     -0.720186     -3.635300
  C       2.610434     -0.573769     -3.285693
  H       1.558904      1.417792     -0.722120
  H       3.834846      0.368025     -1.791536
  H       3.336433     -0.997300     -3.963156
  H      -0.863767     -3.167994     -0.159214
  H      -0.664689     -2.407592      2.446428
  H       1.883942     -1.634049      2.882329
  O       1.243737      2.466244      0.282253
  O       0.545261      0.885046      1.694397
  C       0.877308      2.101959      1.392353
  C       0.809467      3.060804      2.548817
  H       0.738264      4.084782      2.192237
  H       1.724338      2.975234      3.138353
  H      -0.023183      2.838679      3.213133
  H       3.239576     -1.902546      0.590726
  H       1.541674     -2.846398     -1.295306
39
Coordinates from ORCA-job reaction4-IEIP_ts_guess_scan_0-1_orca E -1288.397428266793
  Ir      0.579460     -0.729656      0.472860
  C       0.029287     -2.809870      0.332322
  C       0.119517     -2.369210      1.705086
  C       2.197109     -2.140992      0.744898
  C       1.289510     -2.639435     -0.264747
  C       1.490024     -2.017493      1.952333
  N      -1.038290      0.181569     -0.511723
  C      -2.308960      0.528259      0.143942
  C      -3.127133      1.556078     -0.620110
  H      -3.960210      1.875951      0.004170
  H      -3.562140      1.156145     -1.537547
  H      -2.545487      2.445871     -0.863270
  C      -3.108084     -0.741331      0.410459
  H      -2.015616      0.962135      1.101424
  H      -4.021287     -0.490965      0.948099
  H      -3.394471     -1.232539     -0.520482
  H      -2.557615     -1.452277      1.025160
  C      -0.821699      0.382007     -1.752461
  C       0.531811      0.140382     -2.213678
  H      -1.591511      0.747956     -2.426060
  C       1.648277      0.571097     -1.508471
  C       2.842802      0.130556     -2.146985
  S       0.935306     -0.728382     -3.631087
  C       2.610792     -0.571117     -3.287800
  H       1.558580      1.418088     -0.724173
  H       3.834847      0.373478     -1.795195
  H       3.336949     -0.990902     -3.967415
  H      -0.863529     -3.167805     -0.159879
  H      -0.665603     -2.408615      2.446173
  H       1.882847     -1.635206      2.883531
  O       1.243778      2.464241      0.282709
  O       0.544208      0.883884      1.694869
  C       0.876365      2.100595      1.392717
  C       0.809057      3.059721      2.549040
  H       0.738716      4.083697      2.192292
  H       1.723735      2.973537      3.138795
  H      -0.023897      2.838345      3.213234
  H       3.239495     -1.902805      0.592445
  H       1.542429     -2.845802     -1.294737
39
Coordinates from ORCA-job reaction4-IEIP_ts_guess_scan_0-1_orca E -1288.397427837106
  Ir      0.579587     -0.729627      0.473229
  C       0.029564     -2.809777      0.332386
  C       0.119725     -2.369411      1.705220
  C       2.197337     -2.140902      0.745168
  C       1.289789     -2.639156     -0.264602
  C       1.490205     -2.017651      1.952585
  N      -1.038272      0.181567     -0.511722
  C      -2.308843      0.528492      0.143956
  C      -3.126963      1.556140     -0.620371
  H      -3.959993      1.876252      0.003848
  H      -3.562029      1.155962     -1.537675
  H      -2.545272      2.445824     -0.863822
  C      -3.108048     -0.740956      0.410902
  H      -2.015369      0.962640      1.101276
  H      -4.021235     -0.490315      0.948434
  H      -3.394468     -1.232461     -0.519876
  H      -2.557678     -1.451737      1.025877
  C      -0.821821      0.381957     -1.752485
  C       0.531644      0.140608     -2.213873
  H      -1.591738      0.747908     -2.425972
  C       1.648164      0.570796     -1.508448
  C       2.842664      0.130597     -2.147215
  S       0.935062     -0.727328     -3.631805
  C       2.610563     -0.570811     -3.288181
  H       1.558673      1.417007     -0.724021
  H       3.834736      0.373177     -1.795265
  H       3.336687     -0.990548     -3.967858
  H      -0.863222     -3.167626     -0.159934
  H      -0.665407     -2.409070      2.446282
  H       1.882991     -1.635558      2.883877
  O       1.244651      2.463405      0.282849
  O       0.543763      0.883502      1.694759
  C       0.876436      2.100031      1.392690
  C       0.808529      3.059408      2.548813
  H       0.738783      4.083341      2.191831
  H       1.722712      2.973023      3.139307
  H      -0.025007      2.838420      3.212415
  H       3.239710     -1.902616      0.592784
  H       1.542758     -2.845317     -1.294620
