39
Coordinates from ORCA-job reaction4-IEIP_ts_guess_scan_4-14_orca E -1288.396512573478
  Ir      0.588569     -0.737446      0.504898
  C       0.072881     -2.826996      0.363568
  C      -0.010633     -2.370099      1.728306
  C       2.173225     -2.123766      1.021962
  C       1.398961     -2.653313     -0.076596
  C       1.309377     -1.983384      2.126061
  N      -1.041172      0.124720     -0.495791
  C      -2.325946      0.385294      0.177541
  C      -3.098476      1.554671     -0.415470
  H      -3.932830      1.796046      0.241707
  H      -3.528658      1.328359     -1.391948
  H      -2.481623      2.449327     -0.502274
  C      -3.162636     -0.888632      0.191940
  H      -2.059713      0.640788      1.204225
  H      -4.080914     -0.721942      0.753426
  H      -3.440560     -1.189049     -0.819212
  H      -2.638024     -1.718084      0.663824
  C      -0.866235      0.372602     -1.737457
  C       0.463312      0.206390     -2.254604
  H      -1.677300      0.724579     -2.369020
  C       1.574116      0.342747     -1.434132
  C       2.760602      0.026799     -2.150518
  S       0.862961     -0.235741     -3.855599
  C       2.526665     -0.290953     -3.455555
  H       1.585329      1.286967     -0.566734
  H       3.754773      0.089925     -1.732439
  H       3.251815     -0.535389     -4.217180
  H      -0.744456     -3.211225     -0.229423
  H      -0.878339     -2.411677      2.369973
  H       1.577925     -1.574054      3.089689
  O       1.541419      2.337275      0.198070
  O       0.547740      0.967675      1.636760
  C       1.027416      2.101656      1.299868
  C       0.978643      3.176228      2.345321
  H       0.915160      4.159308      1.886056
  H       1.902669      3.144300      2.925931
  H       0.150581      3.028684      3.034054
  H       3.228331     -1.896452      1.006094
  H       1.774416     -2.876946     -1.064584
39
Coordinates from ORCA-job reaction4-IEIP_ts_guess_scan_4-14_orca E -1288.396666772532
  Ir      0.591487     -0.739038      0.505617
  C       0.071161     -2.829294      0.369464
  C      -0.013368     -2.370944      1.733344
  C       2.171696     -2.128399      1.029131
  C       1.398080     -2.658975     -0.069217
  C       1.306203     -1.984667      2.131703
  N      -1.040968      0.123850     -0.497917
  C      -2.324825      0.384107      0.175954
  C      -3.098303      1.551482     -0.419613
  H      -3.933302      1.793215      0.236583
  H      -3.527450      1.322663     -1.395993
  H      -2.482377      2.446650     -0.507839
  C      -3.159708     -0.890908      0.193006
  H      -2.057980      0.641455      1.202024
  H      -4.077831     -0.724483      0.754793
  H      -3.437874     -1.193456     -0.817442
  H      -2.633505     -1.718719      0.666075
  C      -0.868164      0.374326     -1.741975
  C       0.461905      0.214743     -2.264091
  H      -1.680801      0.729301     -2.369837
  C       1.570157      0.337956     -1.438669
  C       2.757295      0.023796     -2.155449
  S       0.863133     -0.215053     -3.867763
  C       2.525680     -0.280459     -3.464014
  H       1.584364      1.291091     -0.567159
  H       3.750740      0.080017     -1.734638
  H       3.251941     -0.520139     -4.225986
  H      -0.745937     -3.213515     -0.223882
  H      -0.881767     -2.410841      2.374055
  H       1.574019     -1.574229      3.095047
  O       1.545023      2.341807      0.197333
  O       0.547991      0.969268      1.638559
  C       1.030009      2.103447      1.301520
  C       0.981960      3.177485      2.347246
  H       0.918533      4.160926      1.888635
  H       1.906200      3.144971      2.927453
  H       0.154046      3.029539      3.035975
  H       3.227343     -1.903697      1.014713
  H       1.774565     -2.886086     -1.056007
39
Coordinates from ORCA-job reaction4-IEIP_ts_guess_scan_4-14_orca E -1288.396757927428
  Ir      0.590361     -0.740106      0.507411
  C       0.064008     -2.830178      0.381005
  C      -0.022382     -2.368402      1.742963
  C       2.164436     -2.131581      1.041519
  C       1.392243     -2.664892     -0.055930
  C       1.296125     -1.981939      2.141651
  N      -1.038010      0.119643     -0.498408
  C      -2.322317      0.378413      0.174864
  C      -3.097577      1.545059     -0.419966
  H      -3.933049      1.785339      0.236183
  H      -3.526283      1.316012     -1.396450
  H      -2.482930      2.441162     -0.507678
  C      -3.156024     -0.897431      0.192151
  H      -2.055636      0.635451      1.201084
  H      -4.074323     -0.731953      0.754000
  H      -3.433886     -1.200370     -0.818245
  H      -2.628772     -1.724401      0.665343
  C      -0.865472      0.375198     -1.742954
  C       0.463882      0.220363     -2.271874
  H      -1.679474      0.733905     -2.366529
  C       1.571635      0.323172     -1.443102
  C       2.758513      0.022057     -2.166479
  S       0.863934     -0.178509     -3.883160
  C       2.526584     -0.254397     -3.481048
  H       1.590154      1.287327     -0.566938
  H       3.752182      0.068726     -1.744945
  H       3.252646     -0.478608     -4.247845
  H      -0.752656     -3.214820     -0.212638
  H      -0.892006     -2.404803      2.382081
  H       1.562599     -1.568367      3.104022
  O       1.556248      2.339604      0.195665
  O       0.544334      0.971039      1.636342
  C       1.034034      2.101715      1.299801
  C       0.987852      3.177553      2.342868
  H       0.930322      4.160677      1.882749
  H       1.910138      3.141692      2.926005
  H       0.156945      3.033895      3.028769
  H       3.220797     -1.910292      1.029220
  H       1.770196     -2.897764     -1.040767
39
Coordinates from ORCA-job reaction4-IEIP_ts_guess_scan_4-14_orca E -1288.396795910704
  Ir      0.591409     -0.743164      0.510502
  C       0.061142     -2.832737      0.393445
  C      -0.026113     -2.366553      1.753539
  C       2.162078     -2.135733      1.053234
  C       1.390338     -2.671842     -0.042958
  C       1.292191     -1.980070      2.151555
  N      -1.037364      0.116000     -0.499838
  C      -2.323407      0.371672      0.172157
  C      -3.098424      1.540635     -0.418474
  H      -3.934783      1.777661      0.237695
  H      -3.525981      1.315697     -1.396414
  H      -2.484085      2.437408     -0.501483
  C      -3.157908     -0.903829      0.182770
  H      -2.058871      0.624466      1.199997
  H      -4.077481     -0.739909      0.742988
  H      -3.433489     -1.202840     -0.829423
  H      -2.632385     -1.732751      0.654171
  C      -0.864896      0.378149     -1.742881
  C       0.462643      0.227051     -2.275417
  H      -1.680078      0.739168     -2.363515
  C       1.570454      0.312946     -1.445019
  C       2.756790      0.021022     -2.172442
  S       0.862173     -0.141271     -3.893634
  C       2.524239     -0.231290     -3.491908
  H       1.593852      1.282009     -0.566779
  H       3.750357      0.055359     -1.749514
  H       3.249834     -0.445320     -4.262035
  H      -0.755423     -3.218191     -0.199801
  H      -0.896443     -2.399256      2.391860
  H       1.558305     -1.563051      3.112551
  O       1.565093      2.336038      0.193612
  O       0.545570      0.973485      1.634601
  C       1.039427      2.100746      1.297388
  C       0.996640      3.179796      2.336950
  H       0.942448      4.161887      1.874269
  H       1.918668      3.142549      2.920424
  H       0.164979      3.040458      3.022837
  H       3.219002     -1.917185      1.041987
  H       1.768868     -2.910018     -1.026260
39
Coordinates from ORCA-job reaction4-IEIP_ts_guess_scan_4-14_orca E -1288.396820391811
  Ir      0.590435     -0.746278      0.513937
  C       0.056916     -2.834449      0.403690
  C      -0.032124     -2.364450      1.762202
  C       2.157976     -2.139465      1.064749
  C       1.387413     -2.677502     -0.031171
  C       1.285966     -1.978439      2.160782
  N      -1.035685      0.112664     -0.499488
  C      -2.323251      0.365221      0.171486
  C      -3.097833      1.537140     -0.414095
  H      -3.934551      1.770793      0.242779
  H      -3.524980      1.317108     -1.393340
  H      -2.483584      2.434423     -0.492317
  C      -3.158309     -0.909968      0.174311
  H      -2.060883      0.613218      1.201067
  H      -4.079312     -0.748079      0.732750
  H      -3.431299     -1.204314     -0.839959
  H      -2.634552     -1.741374      0.643375
  C      -0.862914      0.379945     -1.740898
  C       0.462442      0.230116     -2.275889
  H      -1.678986      0.742160     -2.359803
  C       1.571447      0.300265     -1.445737
  C       2.757054      0.021263     -2.178477
  S       0.860075     -0.114042     -3.899707
  C       2.522914     -0.205133     -3.502665
  H       1.599497      1.271642     -0.566198
  H       3.750996      0.046681     -1.755937
  H       3.247713     -0.404397     -4.277502
  H      -0.759101     -3.220175     -0.190136
  H      -0.903682     -2.393476      2.399015
  H       1.551227     -1.558416      3.120714
  O       1.574773      2.328172      0.190858
  O       0.545653      0.974871      1.631822
  C       1.044417      2.098089      1.293490
  C       1.003410      3.182404      2.327898
  H       0.952742      4.162517      1.860715
  H       1.924528      3.145161      2.912787
  H       0.170350      3.048631      3.013243
  H       3.215404     -1.923324      1.055318
  H       1.767068     -2.920013     -1.012927
39
Coordinates from ORCA-job reaction4-IEIP_ts_guess_scan_4-14_orca E -1288.396827814078
  Ir      0.589342     -0.747123      0.515152
  C       0.056039     -2.834538      0.406344
  C      -0.034845     -2.363199      1.764328
  C       2.156465     -2.139551      1.069578
  C       1.387318     -2.678319     -0.026957
  C       1.282911     -1.976990      2.164138
  N      -1.035154      0.111421     -0.498756
  C      -2.323369      0.361423      0.172214
  C      -3.097798      1.535492     -0.409493
  H      -3.934441      1.766779      0.248303
  H      -3.525069      1.319046     -1.389490
  H      -2.483582      2.433061     -0.484619
  C      -3.158323     -0.913797      0.169286
  H      -2.062222      0.605965      1.202926
  H      -4.080289     -0.753900      0.726721
  H      -3.429600     -1.204576     -0.846479
  H      -2.635451     -1.747034      0.636185
  C      -0.862305      0.381645     -1.739287
  C       0.462119      0.233317     -2.274894
  H      -1.678699      0.744669     -2.357377
  C       1.572094      0.295582     -1.445695
  C       2.757002      0.020032     -2.180026
  S       0.859712     -0.092070     -3.902739
  C       2.521251     -0.198897     -3.505486
  H       1.603468      1.265629     -0.565145
  H       3.750998      0.037711     -1.757321
  H       3.245036     -0.396927     -4.281605
  H      -0.759067     -3.220600     -0.188512
  H      -0.907327     -2.391135      2.399937
  H       1.547147     -1.555770      3.123833
  O       1.581431      2.323576      0.190012
  O       0.544993      0.976198      1.629666
  C       1.047069      2.097309      1.291150
  C       1.005809      3.184771      2.322622
  H       0.956932      4.163540      1.852478
  H       1.926074      3.148145      2.908866
  H       0.171636      3.054077      3.007223
  H       3.213972     -1.923731      1.061615
  H       1.768093     -2.922041     -1.007956
39
Coordinates from ORCA-job reaction4-IEIP_ts_guess_scan_4-14_orca E -1288.396832725980
  Ir      0.589768     -0.747127      0.515228
  C       0.057394     -2.834724      0.404369
  C      -0.034311     -2.364047      1.762644
  C       2.157319     -2.139461      1.069325
  C       1.388828     -2.677687     -0.028001
  C       1.283286     -1.977911      2.163548
  N      -1.035477      0.112219     -0.498370
  C      -2.323475      0.362353      0.172861
  C      -3.097478      1.536670     -0.408925
  H      -3.933998      1.768332      0.248913
  H      -3.524805      1.320339     -1.388918
  H      -2.482889      2.433962     -0.484167
  C      -3.158664     -0.912707      0.169695
  H      -2.062231      0.606859      1.203535
  H      -4.080684     -0.752791      0.727065
  H      -3.429900     -1.203282     -0.846139
  H      -2.636035     -1.746142      0.636432
  C      -0.862909      0.381559     -1.739309
  C       0.461695      0.232831     -2.274432
  H      -1.679263      0.743986     -2.357753
  C       1.571697      0.296615     -1.445481
  C       2.756548      0.019450     -2.179213
  S       0.859103     -0.098907     -3.901287
  C       2.520906     -0.200838     -3.504527
  H       1.603375      1.265231     -0.564736
  H       3.750612      0.039022     -1.756757
  H       3.244827     -0.398919     -4.280514
  H      -0.757200     -3.220761     -0.191199
  H      -0.907094     -2.392675      2.397819
  H       1.546961     -1.557308      3.123668
  O       1.581412      2.323321      0.190224
  O       0.545315      0.975929      1.630233
  C       1.046921      2.097523      1.291275
  C       1.004599      3.185052      2.322607
  H       0.954348      4.163569      1.852056
  H       1.925125      3.149737      2.908512
  H       0.170825      3.053616      3.007523
  H       3.214736     -1.923167      1.061941
  H       1.770181     -2.920530     -1.009007
39
Coordinates from ORCA-job reaction4-IEIP_ts_guess_scan_4-14_orca E -1288.396836278821
  Ir      0.589921     -0.747143      0.515584
  C       0.058547     -2.834881      0.402702
  C      -0.035421     -2.364618      1.761072
  C       2.157298     -2.139261      1.071445
  C       1.390622     -2.677158     -0.027311
  C       1.281548     -1.978444      2.164333
  N      -1.035353      0.112737     -0.497520
  C      -2.323270      0.362139      0.174007
  C      -3.096971      1.537323     -0.406568
  H      -3.933350      1.768594      0.251594
  H      -3.524363      1.322168     -1.386787
  H      -2.482057      2.434454     -0.480987
  C      -3.158531     -0.912843      0.168918
  H      -2.062172      0.605506      1.204966
  H      -4.080807     -0.753723      0.726114
  H      -3.429371     -1.202053     -0.847414
  H      -2.636162     -1.747016      0.634633
  C      -0.863209      0.382018     -1.738707
  C       0.461276      0.233382     -2.273999
  H      -1.679768      0.744141     -2.357030
  C       1.571697      0.295788     -1.445632
  C       2.756060      0.018389     -2.179853
  S       0.857939     -0.099412     -3.901139
  C       2.519704     -0.200764     -3.505348
  H       1.605380      1.262769     -0.563572
  H       3.750370      0.037808     -1.757999
  H       3.243290     -0.398229     -4.281812
  H      -0.754822     -3.221061     -0.194438
  H      -0.909149     -2.393828      2.394924
  H       1.543666     -1.558222      3.125045
  O       1.585090      2.321443      0.190614
  O       0.545163      0.976247      1.630120
  C       1.048123      2.097464      1.290814
  C       1.003792      3.186121      2.320807
  H       0.952378      4.163851      1.848698
  H       1.924188      3.152925      2.907013
  H       0.169911      3.054575      3.005534
  H       3.214645     -1.922576      1.065783
  H       1.773537     -2.919421     -1.007860
39
Coordinates from ORCA-job reaction4-IEIP_ts_guess_scan_4-14_orca E -1288.396841432986
  Ir      0.590170     -0.747139      0.516414
  C       0.060709     -2.835257      0.400704
  C      -0.038414     -2.365245      1.758936
  C       2.156775     -2.138564      1.077488
  C       1.394272     -2.676469     -0.024089
  C       1.276933     -1.978612      2.167186
  N      -1.035129      0.113159     -0.496006
  C      -2.323193      0.360533      0.175873
  C      -3.096451      1.537702     -0.401524
  H      -3.932760      1.767505      0.257236
  H      -3.523723      1.325511     -1.382437
  H      -2.481082      2.434716     -0.473473
  C      -3.158550     -0.914325      0.165967
  H      -2.062687      0.600904      1.207655
  H      -4.081379     -0.757228      0.722850
  H      -3.428505     -1.200090     -0.851583
  H      -2.636669     -1.750249      0.629098
  C      -0.863724      0.383428     -1.737300
  C       0.460265      0.235468     -2.273574
  H      -1.680852      0.745459     -2.354900
  C       1.571656      0.293046     -1.446405
  C       2.754795      0.015856     -2.182303
  S       0.855135     -0.093952     -3.902307
  C       2.516674     -0.198375     -3.508481
  H       1.610548      1.257234     -0.560969
  H       3.749617      0.032669     -1.761582
  H       3.239329     -0.394248     -4.286225
  H      -0.749942     -3.222062     -0.199700
  H      -0.914282     -2.395367      2.389789
  H       1.535411     -1.558589      3.128975
  O       1.595208      2.316960      0.191856
  O       0.544722      0.977487      1.629278
  C       1.051790      2.097126      1.289762
  C       1.003838      3.188459      2.316629
  H       0.950635      4.164522      1.841180
  H       1.923909      3.159366      2.903523
  H       0.169578      3.057226      3.000877
  H       3.213997     -1.921234      1.075718
  H       1.780746     -2.918144     -1.003398
