39
Coordinates from ORCA-job reaction4-IEIP_ts_guess_scan_14-14_orca E -1288.405413571685
  Ir      0.612771     -0.746548      0.388083
  C       0.190365     -2.861970      0.317530
  C      -0.137870     -2.438252      1.657229
  C       2.110710     -2.032943      1.297404
  C       1.579362     -2.652387      0.123776
  C       1.037195     -1.941774      2.243065
  N      -1.092165      0.094873     -0.506629
  C      -2.363305      0.247184      0.216407
  C      -3.148829      1.489484     -0.178547
  H      -3.981193      1.614320      0.512228
  H      -3.581010      1.420466     -1.177751
  H      -2.537939      2.390719     -0.122619
  C      -3.195062     -1.019086      0.045659
  H      -2.083396      0.345991      1.266432
  H      -4.092769     -0.962080      0.660096
  H      -3.507924     -1.145261     -0.991609
  H      -2.647019     -1.911844      0.343156
  C      -0.950522      0.499018     -1.711826
  C       0.361661      0.331020     -2.240279
  H      -1.759265      0.957349     -2.271511
  C       1.354333     -0.054173     -1.335489
  C       2.584530     -0.244004     -2.041191
  S       0.907187      0.480716     -3.842266
  C       2.483922      0.014674     -3.376800
  H       1.666025      1.228856     -0.725497
  H       3.519313     -0.510545     -1.569076
  H       3.269375     -0.029979     -4.116051
  H      -0.479019     -3.332981     -0.387198
  H      -1.104147     -2.505611      2.133018
  H       1.107839     -1.495197      3.224619
  O       1.794087      2.314513     -0.021970
  O       0.636690      1.068246      1.417125
  C       1.208483      2.137130      1.079413
  C       1.220644      3.271283      2.058303
  H       1.095877      4.223677      1.547978
  H       2.191417      3.297272      2.556500
  H       0.451665      3.148092      2.815251
  H       3.145155     -1.789652      1.484215
  H       2.132200     -2.901405     -0.770438
39
Coordinates from ORCA-job reaction4-IEIP_ts_guess_scan_14-14_orca E -1288.405390540696
  Ir      0.614121     -0.748863      0.380863
  C       0.185252     -2.865744      0.327733
  C      -0.135786     -2.435508      1.667381
  C       2.111388     -2.036015      1.295325
  C       1.574179     -2.661656      0.127669
  C       1.041657     -1.938088      2.244749
  N      -1.093541      0.090558     -0.510472
  C      -2.363256      0.245360      0.214505
  C      -3.147145      1.488412     -0.181259
  H      -3.978950      1.615321      0.509805
  H      -3.579878      1.418946     -1.180212
  H      -2.534895      2.388831     -0.126701
  C      -3.197319     -1.019693      0.046226
  H      -2.081965      0.344920      1.264131
  H      -4.094290     -0.960589      0.661547
  H      -3.511576     -1.146542     -0.990553
  H      -2.650426     -1.913013      0.344116
  C      -0.950484      0.494984     -1.720131
  C       0.363070      0.325895     -2.253169
  H      -1.759097      0.955097     -2.278444
  C       1.352403     -0.074459     -1.351222
  C       2.584284     -0.260352     -2.056459
  S       0.910448      0.481683     -3.854423
  C       2.485772      0.008411     -3.390406
  H       1.689722      1.283629     -0.740597
  H       3.518449     -0.530166     -1.584759
  H       3.272370     -0.031839     -4.128600
  H      -0.488008     -3.339635     -0.371385
  H      -1.099892     -2.498829      2.147988
  H       1.117334     -1.486882      3.223795
  O       1.804542      2.353141     -0.010555
  O       0.642148      1.077579      1.406421
  C       1.211800      2.152493      1.084517
  C       1.212159      3.272771      2.078840
  H       1.085701      4.231697      1.581212
  H       2.179631      3.296602      2.583578
  H       0.439025      3.134826      2.828858
  H       3.147265     -1.795203      1.477438
  H       2.123156     -2.918889     -0.766611
39
Coordinates from ORCA-job reaction4-IEIP_ts_guess_scan_14-14_orca E -1288.405217774301
  Ir      0.614841     -0.760590      0.390545
  C       0.169708     -2.876548      0.343009
  C      -0.144515     -2.448466      1.685335
  C       2.103116     -2.061268      1.307048
  C       1.559944     -2.683077      0.140285
  C       1.035561     -1.958440      2.259039
  N      -1.088003      0.089460     -0.496975
  C      -2.362132      0.235360      0.221633
  C      -3.140955      1.485362     -0.161963
  H      -3.978362      1.603474      0.523888
  H      -3.565229      1.431312     -1.165499
  H      -2.527900      2.383961     -0.089094
  C      -3.197097     -1.025572      0.028995
  H      -2.088322      0.319046      1.274673
  H      -4.098603     -0.974061      0.638384
  H      -3.503842     -1.136800     -1.011830
  H      -2.653814     -1.924056      0.317865
  C      -0.932309      0.514741     -1.703996
  C       0.387332      0.353644     -2.235335
  H      -1.736008      0.987068     -2.259035
  C       1.362981     -0.088291     -1.338126
  C       2.603107     -0.255643     -2.034680
  S       0.951651      0.550005     -3.827406
  C       2.519454      0.053402     -3.361449
  H       1.539014      1.295559     -0.818947
  H       3.531327     -0.543250     -1.561479
  H       3.313724      0.030749     -4.092024
  H      -0.508195     -3.345945     -0.354692
  H      -1.107517     -2.507122      2.168594
  H       1.116339     -1.509425      3.238656
  O       1.686646      2.364975     -0.094684
  O       0.664800      1.067512      1.408599
  C       1.183274      2.152701      1.045161
  C       1.234192      3.276459      2.033528
  H       1.048746      4.230753      1.545372
  H       2.236356      3.323644      2.463517
  H       0.523329      3.123413      2.839877
  H       3.141102     -1.829122      1.488416
  H       2.105628     -2.945734     -0.754463
39
Coordinates from ORCA-job reaction4-IEIP_ts_guess_scan_14-14_orca E -1288.404750743325
  Ir      0.595096     -0.750415      0.389996
  C       0.156740     -2.868107      0.354463
  C      -0.153344     -2.442221      1.698504
  C       2.090153     -2.043644      1.308985
  C       1.545920     -2.670527      0.146052
  C       1.025338     -1.945183      2.265374
  N      -1.114676      0.086281     -0.495672
  C      -2.391101      0.216988      0.220616
  C      -3.182201      1.459491     -0.162185
  H      -4.022845      1.567306      0.521423
  H      -3.602786      1.403039     -1.167125
  H      -2.578938      2.364408     -0.085716
  C      -3.212118     -1.052403      0.024106
  H      -2.120015      0.301238      1.274331
  H      -4.115526     -1.011766      0.631513
  H      -3.515211     -1.165086     -1.017610
  H      -2.659680     -1.945443      0.312727
  C      -0.960854      0.518174     -1.702370
  C       0.362477      0.377145     -2.233984
  H      -1.768522      0.986741     -2.254604
  C       1.337099     -0.069716     -1.338032
  C       2.585271     -0.202866     -2.026649
  S       0.936669      0.617681     -3.818053
  C       2.505977      0.128284     -3.348729
  H       1.782263      1.148595     -0.731035
  H       3.513187     -0.490665     -1.553127
  H       3.305615      0.126623     -4.073773
  H      -0.521893     -3.341880     -0.339551
  H      -1.114071     -2.504971      2.185746
  H       1.107940     -1.494429      3.244015
  O       1.884024      2.252644     -0.052270
  O       0.653447      1.075674      1.386643
  C       1.256813      2.118017      1.039917
  C       1.273292      3.279785      1.984231
  H       1.188948      4.220591      1.444596
  H       2.229756      3.294379      2.510100
  H       0.479824      3.197506      2.720736
  H       3.127845     -1.807695      1.486839
  H       2.089458     -2.934384     -0.749685
39
Coordinates from ORCA-job reaction4-IEIP_ts_guess_scan_14-14_orca E -1288.405652706101
  Ir      0.609000     -0.750728      0.382829
  C       0.169056     -2.864710      0.342735
  C      -0.146466     -2.435252      1.683818
  C       2.100159     -2.042173      1.303689
  C       1.558915     -2.668247      0.139193
  C       1.032711     -1.940740      2.256151
  N      -1.094991      0.090079     -0.506773
  C      -2.367403      0.234137      0.213673
  C      -3.156860      1.474555     -0.179111
  H      -3.992639      1.593412      0.508619
  H      -3.584345      1.407256     -1.180435
  H      -2.549967      2.378104     -0.117509
  C      -3.193533     -1.035046      0.037875
  H      -2.089689      0.330314      1.264590
  H      -4.093247     -0.983431      0.649867
  H      -3.502758     -1.160038     -1.000588
  H      -2.642329     -1.926114      0.334973
  C      -0.950466      0.507122     -1.710709
  C       0.361761      0.345151     -2.246574
  H      -1.759502      0.973016     -2.263293
  C       1.346064     -0.081125     -1.351636
  C       2.579680     -0.254152     -2.055748
  S       0.920419      0.558774     -3.838815
  C       2.488964      0.059138     -3.381284
  H       1.724356      1.252158     -0.741481
  H       3.508041     -0.552550     -1.590223
  H       3.278449      0.032612     -4.117097
  H      -0.507570     -3.337407     -0.353881
  H      -1.109798     -2.494687      2.166559
  H       1.112711     -1.488774      3.234475
  O       1.828957      2.332798     -0.026446
  O       0.654048      1.077714      1.395370
  C       1.227965      2.145645      1.068686
  C       1.231801      3.277009      2.050288
  H       1.113755      4.231643      1.542551
  H       2.197139      3.299781      2.559176
  H       0.454474      3.151557      2.798257
  H       3.137426     -1.806386      1.484153
  H       2.105081     -2.931223     -0.755184
39
Coordinates from ORCA-job reaction4-IEIP_ts_guess_scan_14-14_orca E -1288.405783729212
  Ir      0.606998     -0.755924      0.385793
  C       0.162049     -2.869551      0.350671
  C      -0.151252     -2.439955      1.692506
  C       2.095290     -2.050574      1.309807
  C       1.552391     -2.676619      0.146032
  C       1.028507     -1.946935      2.263177
  N      -1.096644      0.088958     -0.503686
  C      -2.371568      0.229147      0.214363
  C      -3.161439      1.470309     -0.175274
  H      -3.998965      1.585415      0.510912
  H      -3.586576      1.406623     -1.177851
  H      -2.555733      2.374325     -0.108547
  C      -3.196826     -1.039649      0.031576
  H      -2.097053      0.321459      1.266566
  H      -4.098483     -0.990447      0.640903
  H      -3.502795     -1.161100     -1.008308
  H      -2.646468     -1.931567      0.327242
  C      -0.946465      0.512738     -1.707675
  C       0.368458      0.351780     -2.242078
  H      -1.753705      0.980834     -2.261058
  C       1.347516     -0.087657     -1.347716
  C       2.588218     -0.242691     -2.044314
  S       0.933227      0.569188     -3.832045
  C       2.503967      0.083322     -3.367450
  H       1.662075      1.263076     -0.780059
  H       3.516268     -0.536378     -1.574962
  H       3.299331      0.072878     -4.097236
  H      -0.515936     -3.341858     -0.344978
  H      -1.114259     -2.497587      2.175970
  H       1.110195     -1.494818      3.241280
  O       1.793474      2.337360     -0.059886
  O       0.662953      1.076066      1.393197
  C       1.225248      2.145433      1.053083
  C       1.254355      3.275589      2.035299
  H       1.119405      4.230572      1.532368
  H       2.233812      3.300115      2.516381
  H       0.499037      3.147125      2.804879
  H       3.133233     -1.817463      1.490023
  H       2.097532     -2.942348     -0.748163
39
Coordinates from ORCA-job reaction4-IEIP_ts_guess_scan_14-14_orca E -1288.405802335699
  Ir      0.606671     -0.753744      0.384932
  C       0.164997     -2.867286      0.347324
  C      -0.150930     -2.440195      1.689313
  C       2.095439     -2.046372      1.310196
  C       1.555438     -2.672003      0.144980
  C       1.027131     -1.945940      2.262309
  N      -1.097112      0.089914     -0.504287
  C      -2.371689      0.229971      0.214275
  C      -3.163380      1.469310     -0.177410
  H      -4.000551      1.584739      0.509145
  H      -3.589174      1.402954     -1.179549
  H      -2.558785      2.374230     -0.112998
  C      -3.195517     -1.040178      0.034615
  H      -2.096558      0.324809      1.266105
  H      -4.097036     -0.990460      0.644083
  H      -3.501612     -1.164397     -1.004905
  H      -2.644153     -1.930807      0.332263
  C      -0.948014      0.513790     -1.707733
  C       0.366658      0.354394     -2.241972
  H      -1.755640      0.982023     -2.260464
  C       1.346992     -0.081940     -1.347294
  C       2.585364     -0.243704     -2.046508
  S       0.932857      0.582091     -3.829932
  C       2.499042      0.077562     -3.370711
  H       1.679232      1.252234     -0.767302
  H       3.512308     -0.544545     -1.579588
  H       3.291951      0.058408     -4.103003
  H      -0.511161     -3.339932     -0.349873
  H      -1.114686     -2.499795      2.171048
  H       1.106731     -1.494893      3.241067
  O       1.806875      2.330020     -0.051702
  O       0.659390      1.076529      1.393163
  C       1.227573      2.143561      1.056373
  C       1.252446      3.275951      2.036196
  H       1.125514      4.230187      1.529827
  H       2.227755      3.297930      2.525777
  H       0.489971      3.152231      2.799489
  H       3.132711     -1.811700      1.492243
  H       2.102318     -2.935755     -0.748749
39
Coordinates from ORCA-job reaction4-IEIP_ts_guess_scan_14-14_orca E -1288.405793114813
  Ir      0.605898     -0.753310      0.383570
  C       0.165851     -2.866438      0.345687
  C      -0.151707     -2.440112      1.687522
  C       2.094603     -2.044067      1.310564
  C       1.556440     -2.670083      0.144815
  C       1.025336     -1.945008      2.261846
  N      -1.097984      0.090351     -0.505540
  C      -2.371944      0.231263      0.213787
  C      -3.165178      1.468773     -0.180521
  H      -4.001713      1.585254      0.506632
  H      -3.592007      1.399188     -1.182007
  H      -2.561409      2.374458     -0.119245
  C      -3.194899     -1.040047      0.038409
  H      -2.095772      0.329282      1.265055
  H      -4.096057     -0.989032      0.648303
  H      -3.501535     -1.167611     -1.000537
  H      -2.642805     -1.929414      0.338433
  C      -0.950400      0.512775     -1.708926
  C       0.363116      0.351685     -2.243932
  H      -1.758795      0.979522     -2.261791
  C       1.344980     -0.080625     -1.348842
  C       2.583005     -0.242134     -2.048658
  S       0.926394      0.571076     -3.833914
  C       2.496463      0.081523     -3.372226
  H       1.696982      1.244554     -0.757404
  H       3.511017     -0.539120     -1.581478
  H       3.289998      0.066787     -4.103962
  H      -0.509173     -3.339664     -0.352211
  H      -1.116045     -2.500324      2.168026
  H       1.103691     -1.494101      3.240761
  O       1.822384      2.323949     -0.043834
  O       0.657229      1.076799      1.391609
  C       1.232257      2.141475      1.058968
  C       1.253112      3.275010      2.037607
  H       1.134520      4.229021      1.528847
  H       2.224164      3.293660      2.535702
  H       0.483468      3.155487      2.794384
  H       3.131470     -1.808433      1.493675
  H       2.104414     -2.933179     -0.748433
39
Coordinates from ORCA-job reaction4-IEIP_ts_guess_scan_14-14_orca E -1288.405806443645
  Ir      0.605725     -0.753773      0.383645
  C       0.165637     -2.866905      0.346800
  C      -0.152208     -2.440529      1.688616
  C       2.094001     -2.044197      1.312081
  C       1.556352     -2.670669      0.146345
  C       1.024434     -1.945159      2.263107
  N      -1.098275      0.090339     -0.505183
  C      -2.372624      0.230108      0.213758
  C      -3.166238      1.467660     -0.179692
  H      -4.003164      1.583025      0.507171
  H      -3.592550      1.398872     -1.181452
  H      -2.562967      2.373599     -0.117189
  C      -3.195114     -1.041265      0.036631
  H      -2.097014      0.327216      1.265273
  H      -4.096698     -0.991044      0.645969
  H      -3.501023     -1.167914     -1.002642
  H      -2.643056     -1.930796      0.336156
  C      -0.949711      0.514946     -1.708134
  C       0.364284      0.354618     -2.243018
  H      -1.757742      0.982733     -2.260628
  C       1.345200     -0.081614     -1.348804
  C       2.583481     -0.242577     -2.048386
  S       0.928595      0.577218     -3.832161
  C       2.497036      0.081175     -3.371953
  H       1.690654      1.249026     -0.763261
  H       3.511137     -0.541175     -1.581478
  H       3.290456      0.065582     -4.103781
  H      -0.509121     -3.340539     -0.351085
  H      -1.116704     -2.500627      2.168797
  H       1.102516     -1.494108      3.241975
  O       1.819304      2.326414     -0.047241
  O       0.658327      1.077400      1.390661
  C       1.232561      2.142294      1.057305
  C       1.255924      3.275006      2.036769
  H       1.135597      4.229383      1.529085
  H       2.228407      3.293493      2.532062
  H       0.488496      3.154677      2.795655
  H       3.130806     -1.808550      1.495561
  H       2.104650     -2.934151     -0.746592
39
Coordinates from ORCA-job reaction4-IEIP_ts_guess_scan_14-14_orca E -1288.405808347921
  Ir      0.605097     -0.753753      0.383122
  C       0.166432     -2.866837      0.346982
  C      -0.153194     -2.440897      1.688589
  C       2.092897     -2.042443      1.314478
  C       1.557387     -2.669766      0.148294
  C       1.022107     -1.944484      2.264416
  N      -1.099052      0.090595     -0.505337
  C      -2.373589      0.229231      0.213488
  C      -3.168545      1.465895     -0.180067
  H      -4.005654      1.580264      0.506738
  H      -3.594709      1.396558     -1.181854
  H      -2.566375      2.372565     -0.117503
  C      -3.194929     -1.042874      0.036226
  H      -2.098162      0.326709      1.265032
  H      -4.096830     -0.993207      0.645144
  H      -3.500245     -1.169937     -1.003167
  H      -2.642403     -1.931963      0.336140
  C      -0.950041      0.517295     -1.707585
  C       0.364029      0.357470     -2.242605
  H      -1.757908      0.986030     -2.259493
  C       1.344553     -0.081549     -1.349318
  C       2.582408     -0.243388     -2.049478
  S       0.928482      0.582200     -3.831324
  C       2.496014      0.082264     -3.372622
  H       1.691695      1.249609     -0.764683
  H       3.509747     -0.544149     -1.583320
  H       3.289168      0.066257     -4.104725
  H      -0.507033     -3.341465     -0.351477
  H      -1.118337     -2.501432      2.167408
  H       1.098744     -1.493382      3.243366
  O       1.823585      2.325621     -0.047185
  O       0.658034      1.078479      1.388760
  C       1.235057      2.142190      1.056628
  C       1.259733      3.274602      2.036384
  H       1.141946      4.229296      1.528702
  H       2.231714      3.290936      2.532738
  H       0.491229      3.155772      2.794412
  H       3.129288     -1.805980      1.499283
  H       2.107032     -2.933140     -0.743847
39
Coordinates from ORCA-job reaction4-IEIP_ts_guess_scan_14-14_orca E -1288.405805027025
  Ir      0.602906     -0.753450      0.381247
  C       0.169823     -2.866587      0.347166
  C      -0.156373     -2.441759      1.687783
  C       2.089389     -2.035705      1.322484
  C       1.561530     -2.666212      0.154851
  C       1.014172     -1.941407      2.268430
  N      -1.101930      0.091364     -0.506200
  C      -2.376887      0.226562      0.212451
  C      -3.176065      1.460400     -0.181420
  H      -4.013628      1.571742      0.505327
  H      -3.601903      1.389247     -1.183223
  H      -2.577302      2.369326     -0.118841
  C      -3.194642     -1.047873      0.035119
  H      -2.101793      0.325322      1.264005
  H      -4.097289     -1.000003      0.643084
  H      -3.498510     -1.176206     -1.004531
  H      -2.640470     -1.935564      0.335974
  C      -0.952024      0.524167     -1.706138
  C       0.361864      0.365301     -2.241906
  H      -1.759519      0.995775     -2.256098
  C       1.341583     -0.081335     -1.351560
  C       2.578074     -0.245160     -2.053709
  S       0.925697      0.594498     -3.830027
  C       2.491387      0.085959     -3.375612
  H       1.701199      1.248706     -0.765851
  H       3.504864     -0.551127     -1.589839
  H       3.283734      0.069680     -4.108573
  H      -0.498915     -3.344919     -0.353297
  H      -1.123801     -2.503932      2.161760
  H       1.085478     -1.489937      3.247583
  O       1.842569      2.320779     -0.044274
  O       0.656170      1.082239      1.382099
  C       1.244588      2.141158      1.055272
  C       1.271897      3.272991      2.035614
  H       1.165000      4.228616      1.527279
  H       2.240700      3.281446      2.538334
  H       0.497513      3.160216      2.788561
  H       3.124247     -1.796062      1.511847
  H       2.116036     -2.929069     -0.734431
39
Coordinates from ORCA-job reaction4-IEIP_ts_guess_scan_14-14_orca E -1288.405799794808
  Ir      0.601435     -0.753045      0.380180
  C       0.172776     -2.866577      0.347010
  C      -0.158445     -2.442031      1.686620
  C       2.087214     -2.030698      1.328079
  C       1.564925     -2.663592      0.159464
  C       1.008661     -1.938671      2.270859
  N      -1.103898      0.091592     -0.506685
  C      -2.379034      0.224647      0.211971
  C      -3.180318      1.457298     -0.181270
  H      -4.018141      1.566675      0.505475
  H      -3.605923      1.385890     -1.183158
  H      -2.583256      2.367297     -0.118048
  C      -3.194936     -1.050887      0.033861
  H      -2.104082      0.323400      1.263583
  H      -4.097737     -1.004556      0.641716
  H      -3.498440     -1.178969     -1.005922
  H      -2.639704     -1.938092      0.334153
  C      -0.953685      0.527775     -1.705234
  C       0.359967      0.369360     -2.241607
  H      -1.760944      1.001303     -2.253885
  C       1.339383     -0.081349     -1.353099
  C       2.574867     -0.246534     -2.056725
  S       0.923054      0.601149     -3.829622
  C       2.488114      0.088937     -3.377615
  H       1.709289      1.246213     -0.765367
  H       3.501345     -0.555773     -1.594402
  H       3.279965      0.072980     -4.111114
  H      -0.492426     -3.347678     -0.354906
  H      -1.127501     -2.505447      2.157106
  H       1.075866     -1.486740      3.250070
  O       1.856054      2.316303     -0.041925
  O       0.654331      1.084804      1.377586
  C       1.250863      2.140147      1.054290
  C       1.279374      3.271928      2.034681
  H       1.180160      4.228019      1.525667
  H       2.245646      3.275259      2.542308
  H       0.500581      3.163425      2.783695
  H       3.120917     -1.788586      1.520639
  H       2.123055     -2.925987     -0.727689
39
Coordinates from ORCA-job reaction4-IEIP_ts_guess_scan_14-14_orca E -1288.405794563884
  Ir      0.600209     -0.752626      0.379460
  C       0.176531     -2.866969      0.346516
  C      -0.160302     -2.442202      1.684755
  C       2.085445     -2.025714      1.333887
  C       1.569054     -2.661084      0.164218
  C       1.003203     -1.935604      2.272956
  N      -1.105744      0.091379     -0.506992
  C      -2.380946      0.222633      0.211800
  C      -3.183031      1.455332     -0.179517
  H      -4.021081      1.562921      0.507237
  H      -3.608349      1.385268     -1.181625
  H      -2.586642      2.365647     -0.114594
  C      -3.196029     -1.053148      0.031600
  H      -2.106085      0.319946      1.263577
  H      -4.098526     -1.008709      0.640043
  H      -3.500004     -1.179224     -1.008289
  H      -2.640015     -1.940658      0.329565
  C      -0.955577      0.529860     -1.704513
  C       0.357726      0.371533     -2.241571
  H      -1.762682      1.004954     -2.252053
  C       1.337157     -0.081777     -1.354573
  C       2.571934     -0.247246     -2.059421
  S       0.919746      0.604853     -3.829853
  C       2.484778      0.091060     -3.379623
  H       1.716751      1.243091     -0.764598
  H       3.498432     -0.558221     -1.598303
  H       3.276186      0.075775     -4.113609
  H      -0.484836     -3.350977     -0.356998
  H      -1.131056     -2.506980      2.151573
  H       1.065810     -1.483029      3.252159
  O       1.867802      2.311858     -0.040085
  O       0.652287      1.087234      1.373483
  C       1.256210      2.139210      1.053107
  C       1.285781      3.271001      2.033490
  H       1.193116      4.227491      1.523986
  H       2.249852      3.270017      2.545295
  H       0.503251      3.166086      2.779108
  H       3.117894     -1.780903      1.529761
  H       2.131123     -2.922885     -0.720617
39
Coordinates from ORCA-job reaction4-IEIP_ts_guess_scan_14-14_orca E -1288.405792173025
  Ir      0.599500     -0.752269      0.379236
  C       0.180734     -2.867685      0.345569
  C      -0.161872     -2.442467      1.682258
  C       2.084189     -2.021546      1.339555
  C       1.573572     -2.658986      0.168679
  C       0.998153     -1.932898      2.274599
  N      -1.107041      0.090662     -0.506892
  C      -2.382191      0.220650      0.212182
  C      -3.183455      1.454895     -0.175785
  H      -4.021654      1.561056      0.511015
  H      -3.608502      1.388007     -1.178227
  H      -2.586443      2.364587     -0.108053
  C      -3.197781     -1.054311      0.028437
  H      -2.107382      0.314901      1.264241
  H      -4.099488     -1.011981      0.638194
  H      -3.503130     -1.176468     -1.011521
  H      -2.641432     -1.943035      0.322221
  C      -0.957236      0.530028     -1.704020
  C       0.355804      0.371768     -2.241681
  H      -1.764335      1.005988     -2.250843
  C       1.335493     -0.082555     -1.355641
  C       2.569789     -0.247934     -2.061416
  S       0.916879      0.606121     -3.830322
  C       2.482214      0.092158     -3.381152
  H       1.720758      1.240560     -0.764834
  H       3.496428     -0.559753     -1.601142
  H       3.273254      0.077472     -4.115545
  H      -0.476834     -3.354242     -0.359715
  H      -1.134285     -2.508620      2.145453
  H       1.056022     -1.479703      3.253797
  O       1.874299      2.308880     -0.040183
  O       0.650615      1.089078      1.370456
  C       1.259311      2.138723      1.051447
  C       1.290179      3.270488      2.031842
  H       1.200875      4.227275      1.522282
  H       2.253332      3.267061      2.545361
  H       0.506028      3.167472      2.776016
  H       3.115396     -1.774169      1.538721
  H       2.139606     -2.920014     -0.713852
39
Coordinates from ORCA-job reaction4-IEIP_ts_guess_scan_14-14_orca E -1288.405792094673
  Ir      0.599244     -0.751931      0.379297
  C       0.186011     -2.868603      0.343898
  C      -0.163496     -2.443128      1.678773
  C       2.083089     -2.017522      1.346166
  C       1.579228     -2.656777      0.173587
  C       0.992501     -1.930508      2.276262
  N      -1.108012      0.089455     -0.506519
  C      -2.383021      0.218438      0.213003
  C      -3.182030      1.455643     -0.170013
  H      -4.020289      1.560518      0.516926
  H      -3.606871      1.393818     -1.172865
  H      -2.583242      2.363846     -0.098284
  C      -3.200321     -1.054675      0.024068
  H      -2.108240      0.307927      1.265456
  H      -4.100739     -1.014830      0.635890
  H      -3.507968     -1.170867     -1.015900
  H      -2.644037     -1.945514      0.311650
  C      -0.959002      0.528550     -1.703810
  C       0.353786      0.370395     -2.242106
  H      -1.766415      1.004417     -2.250283
  C       1.334051     -0.083615     -1.356621
  C       2.568088     -0.248280     -2.063103
  S       0.913796      0.604841     -3.831269
  C       2.479652      0.091632     -3.382824
  H       1.721787      1.239144     -0.766174
  H       3.495154     -0.559633     -1.603359
  H       3.270274      0.077301     -4.117673
  H      -0.467127     -3.357611     -0.363769
  H      -1.137867     -2.510953      2.137635
  H       1.044714     -1.476843      3.255553
  O       1.876955      2.307457     -0.041861
  O       0.649424      1.090731      1.368114
  C       1.261016      2.138833      1.049413
  C       1.293848      3.270359      2.030019
  H       1.205381      4.227461      1.520884
  H       2.257297      3.265714      2.542972
  H       0.509963      3.167950      2.774549
  H       3.112837     -1.767340      1.549326
  H       2.149953     -2.916612     -0.706266
39
Coordinates from ORCA-job reaction4-IEIP_ts_guess_scan_14-14_orca E -1288.405794065421
  Ir      0.599409     -0.751583      0.379492
  C       0.192109     -2.869395      0.341484
  C      -0.165278     -2.444395      1.674502
  C       2.081906     -2.013621      1.353761
  C       1.585818     -2.654238      0.178897
  C       0.986096     -1.928828      2.278164
  N      -1.108632      0.087861     -0.505888
  C      -2.383445      0.216006      0.214210
  C      -3.179182      1.457162     -0.162695
  H      -4.017359      1.560902      0.524538
  H      -3.603991      1.401687     -1.165928
  H      -2.577787      2.363235     -0.086265
  C      -3.203382     -1.054457      0.018929
  H      -2.108673      0.299546      1.267116
  H      -4.102214     -1.017235      0.633248
  H      -3.513897     -1.163287     -1.020987
  H      -2.647597     -1.948052      0.298998
  C      -0.960795      0.525872     -1.703798
  C       0.351817      0.368206     -2.242743
  H      -1.768927      1.000612     -2.250222
  C       1.332888     -0.084678     -1.357530
  C       2.566635     -0.248823     -2.064702
  S       0.910769      0.602266     -3.832402
  C       2.477151      0.090074     -3.384605
  H       1.720303      1.238946     -0.768677
  H       3.494222     -0.559261     -1.605374
  H       3.267287      0.075726     -4.119975
  H      -0.456007     -3.360571     -0.369263
  H      -1.141927     -2.514208      2.128237
  H       1.031873     -1.475088      3.257733
  O       1.876433      2.307492     -0.044914
  O       0.649030      1.092115      1.366419
  C       1.261692      2.139441      1.047120
  C       1.297029      3.270691      2.027931
  H       1.207184      4.228004      1.519408
  H       2.261850      3.265983      2.538296
  H       0.515075      3.167957      2.774435
  H       3.109969     -1.760491      1.561732
  H       2.161919     -2.912382     -0.697941
39
Coordinates from ORCA-job reaction4-IEIP_ts_guess_scan_14-14_orca E -1288.405797506659
  Ir      0.599928     -0.751253      0.379673
  C       0.199492     -2.869998      0.338149
  C      -0.167434     -2.446582      1.669212
  C       2.080322     -2.009327      1.363127
  C       1.593871     -2.650986      0.185179
  C       0.978190     -1.927916      2.280679
  N      -1.109099      0.085852     -0.505090
  C      -2.383669      0.213162      0.215729
  C      -3.175258      1.459175     -0.153796
  H      -4.013144      1.561822      0.533985
  H      -3.600294      1.411293     -1.157316
  H      -2.570531      2.362533     -0.072021
  C      -3.207102     -1.053847      0.012869
  H      -2.108864      0.289545      1.269122
  H      -4.104130     -1.019394      0.629988
  H      -3.520915     -1.153904     -1.026941
  H      -2.652329     -1.950834      0.284159
  C      -0.962916      0.522236     -1.703906
  C       0.349478      0.365432     -2.243656
  H      -1.772265      0.994810     -2.250446
  C       1.331648     -0.085763     -1.358633
  C       2.565041     -0.249317     -2.066569
  S       0.907113      0.598404     -3.833879
  C       2.474100      0.087602     -3.386886
  H       1.717612      1.239583     -0.771982
  H       3.493361     -0.558140     -1.607616
  H       3.263644      0.073067     -4.122887
  H      -0.442495     -3.363282     -0.376660
  H      -1.146929     -2.518897      2.116428
  H       1.016221     -1.474650      3.260784
  O       1.874565      2.308421     -0.048829
  O       0.649600      1.093447      1.365050
  C       1.262216      2.140435      1.044614
  C       1.300527      3.271524      2.025457
  H       1.207907      4.228871      1.517471
  H       2.267451      3.267527      2.531833
  H       0.521644      3.168117      2.775065
  H       3.106276     -1.752823      1.577281
  H       2.176539     -2.906758     -0.688001
39
Coordinates from ORCA-job reaction4-IEIP_ts_guess_scan_14-14_orca E -1288.405802312333
  Ir      0.600722     -0.751126      0.379787
  C       0.206578     -2.870318      0.334503
  C      -0.169534     -2.449464      1.663979
  C       2.078567     -2.005678      1.372304
  C       1.601665     -2.647765      0.191087
  C       0.970361     -1.928280      2.283314
  N      -1.109244      0.083845     -0.504213
  C      -2.383543      0.210604      0.217352
  C      -3.171013      1.461288     -0.145206
  H      -4.008368      1.563241      0.543353
  H      -3.596591      1.420425     -1.148799
  H      -2.562937      2.361939     -0.058827
  C      -3.210617     -1.052874      0.007474
  H      -2.108619      0.280274      1.271133
  H      -4.106146     -1.020528      0.626891
  H      -3.527224     -1.144854     -1.032236
  H      -2.657309     -1.953150      0.270945
  C      -0.964841      0.518514     -1.703961
  C       0.347308      0.362760     -2.244560
  H      -1.775597      0.988581     -2.250619
  C       1.330610     -0.086746     -1.359714
  C       2.563572     -0.249935     -2.068401
  S       0.903675      0.594626     -3.835241
  C       2.471269      0.085386     -3.389065
  H       1.714790      1.240472     -0.775317
  H       3.492584     -0.557227     -1.609813
  H       3.260279      0.070740     -4.125637
  H      -0.429433     -3.365181     -0.384523
  H      -1.151878     -2.524238      2.104548
  H       1.001006     -1.476085      3.264153
  O       1.871946      2.309746     -0.052853
  O       0.651325      1.094207      1.364348
  C       1.262550      2.141423      1.042303
  C       1.303222      3.272792      2.022705
  H       1.206868      4.229812      1.514777
  H       2.272420      3.270515      2.524719
  H       0.527799      3.168534      2.775771
  H       3.102406     -1.746129      1.592818
  H       2.190740     -2.900956     -0.678536
39
Coordinates from ORCA-job reaction4-IEIP_ts_guess_scan_14-14_orca E -1288.405806692940
  Ir      0.601488     -0.751333      0.379825
  C       0.210580     -2.870426      0.331945
  C      -0.170707     -2.451931      1.660810
  C       2.077438     -2.004234      1.377509
  C       1.606132     -2.646043      0.194185
  C       0.965811     -1.929762      2.284932
  N      -1.108997      0.082737     -0.503579
  C      -2.383080      0.209526      0.218478
  C      -3.168132      1.462819     -0.140412
  H      -4.004911      1.564806      0.548855
  H      -3.594361      1.425493     -1.143863
  H      -2.558036      2.361899     -0.052084
  C      -3.212452     -1.051825      0.005035
  H      -2.107960      0.275678      1.272412
  H      -4.107465     -1.019991      0.625230
  H      -3.530104     -1.139806     -1.034704
  H      -2.660482     -1.953982      0.264972
  C      -0.965770      0.516300     -1.703869
  C       0.346119      0.361042     -2.245088
  H      -1.777440      0.984820     -2.250529
  C       1.330137     -0.087452     -1.360386
  C       2.562840     -0.250317     -2.069473
  S       0.901693      0.592205     -3.836026
  C       2.469730      0.084214     -3.390323
  H       1.713224      1.241031     -0.777126
  H       3.492275     -0.556611     -1.611078
  H       3.258481      0.069684     -4.127175
  H      -0.422005     -3.365837     -0.389714
  H      -1.154791     -2.528076      2.097281
  H       0.992399     -1.478783      3.266431
  O       1.869744      2.310816     -0.055279
  O       0.653611      1.093998      1.364677
  C       1.262559      2.141965      1.041117
  C       1.303727      3.273994      2.020752
  H       1.204072      4.230434      1.512359
  H       2.274386      3.273962      2.519936
  H       0.530673      3.168905      2.776137
  H       3.100039     -1.743190      1.601984
  H       2.198906     -2.897539     -0.673413
39
Coordinates from ORCA-job reaction4-IEIP_ts_guess_scan_14-14_orca E -1288.405810138369
  Ir      0.602022     -0.751733      0.379880
  C       0.211539     -2.870550      0.330720
  C      -0.170995     -2.453426      1.659711
  C       2.077084     -2.004675      1.378692
  C       1.607283     -2.645913      0.194598
  C       0.964602     -1.931450      2.285358
  N      -1.108502      0.082612     -0.503153
  C      -2.382447      0.209780      0.219119
  C      -3.166818      1.463718     -0.139101
  H      -4.003170      1.566128      0.550619
  H      -3.593555      1.426869     -1.142354
  H      -2.556090      2.362382     -0.050909
  C      -3.212604     -1.050944      0.005151
  H      -2.107128      0.275294      1.273040
  H      -4.107874     -1.018569      0.624950
  H      -3.529890     -1.138522     -1.034737
  H      -2.661460     -1.953592      0.265156
  C      -0.965685      0.515787     -1.703586
  C       0.345993      0.360357     -2.245136
  H      -1.777573      0.984087     -2.250120
  C       1.330214     -0.087948     -1.360558
  C       2.562825     -0.250680     -2.069745
  S       0.901331      0.591534     -3.836136
  C       2.469566      0.084077     -3.390551
  H       1.712796      1.241023     -0.777558
  H       3.492336     -0.556864     -1.611439
  H       3.258293      0.069752     -4.127433
  H      -0.420180     -3.365817     -0.391796
  H      -1.155654     -2.529812      2.094859
  H       0.990329     -1.481379      3.267287
  O       1.868113      2.311353     -0.056260
  O       0.655632      1.093123      1.365588
  C       1.262188      2.142025      1.040799
  C       1.302311      3.274838      2.019607
  H       1.200258      4.230664      1.510536
  H       2.273533      3.277054      2.517683
  H       0.530331      3.168934      2.775978
  H       3.099373     -1.743533      1.604485
  H       2.201044     -2.896792     -0.672503
