39
Coordinates from ORCA-job reaction4-IEIP_ts_guess_scan_2-4_orca E -1288.397251256727
  Ir      0.581278     -0.722971      0.449108
  C       0.029224     -2.803485      0.323241
  C       0.129325     -2.361028      1.693960
  C       2.200167     -2.134139      0.716664
  C       1.285306     -2.635384     -0.284660
  C       1.500769     -2.006291      1.928637
  N      -1.049565      0.181193     -0.519561
  C      -2.318531      0.521911      0.142237
  C      -3.143828      1.548569     -0.615877
  H      -3.975598      1.863753      0.012543
  H      -3.581015      1.149223     -1.532533
  H      -2.566902      2.441368     -0.859333
  C      -3.113198     -0.750246      0.409958
  H      -2.022245      0.954916      1.099244
  H      -4.025133     -0.502971      0.951199
  H      -3.401675     -1.240947     -0.520609
  H      -2.558624     -1.460388      1.021755
  C      -0.834282      0.383985     -1.758840
  C       0.522412      0.143421     -2.205257
  H      -1.601333      0.750046     -2.435431
  C       1.624054      0.540844     -1.457989
  C       2.829613      0.104459     -2.079892
  S       0.950463     -0.691350     -3.634306
  C       2.618933     -0.562199     -3.245702
  H       1.531180      1.402119     -0.671724
  H       3.815383      0.326481     -1.697547
  H       3.357370     -0.970065     -3.919458
  H      -0.867302     -3.162219     -0.161665
  H      -0.649781     -2.399962      2.441288
  H       1.900484     -1.621194      2.855745
  O       1.274841      2.469730      0.264403
  O       0.543604      0.896374      1.668348
  C       0.894138      2.107092      1.372318
  C       0.832992      3.067042      2.527860
  H       0.777683      4.092079      2.171537
  H       1.743202      2.968481      3.122639
  H      -0.006493      2.855511      3.187047
  H       3.241854     -1.897940      0.556854
  H       1.530602     -2.846628     -1.315465
39
Coordinates from ORCA-job reaction4-IEIP_ts_guess_scan_2-4_orca E -1288.396134184279
  Ir      0.584422     -0.711580      0.441130
  C       0.045466     -2.796157      0.303385
  C       0.136508     -2.361437      1.676997
  C       2.210334     -2.115510      0.710515
  C       1.303301     -2.617330     -0.297578
  C       1.504243     -1.998168      1.919633
  N      -1.057751      0.185631     -0.526247
  C      -2.323719      0.529798      0.138328
  C      -3.154963      1.545460     -0.627981
  H      -3.984982      1.865682      0.000207
  H      -3.594715      1.134383     -1.538236
  H      -2.581431      2.436895     -0.884160
  C      -3.112944     -0.741758      0.424045
  H      -2.023779      0.974234      1.088935
  H      -4.022788     -0.491295      0.967322
  H      -3.404750     -1.243476     -0.499572
  H      -2.552845     -1.443414      1.040646
  C      -0.850382      0.373909     -1.770264
  C       0.506366      0.132969     -2.216056
  H      -1.621983      0.726892     -2.448642
  C       1.603358      0.556991     -1.475671
  C       2.812014      0.104338     -2.081058
  S       0.940884     -0.744156     -3.617019
  C       2.607251     -0.601965     -3.224131
  H       1.508111      1.471885     -0.742754
  H       3.796096      0.346907     -1.707053
  H       3.349274     -1.026723     -3.883245
  H      -0.846405     -3.158097     -0.187658
  H      -0.645475     -2.410332      2.420656
  H       1.897174     -1.615570      2.850657
  O       1.397740      2.438157      0.323067
  O       0.523131      0.898233      1.675084
  C       0.931879      2.095128      1.405127
  C       0.832508      3.059539      2.554140
  H       0.837295      4.085092      2.194962
  H       1.698901      2.929417      3.205558
  H      -0.054303      2.880145      3.158493
  H       3.251430     -1.872878      0.557188
  H       1.554898     -2.822645     -1.328012
39
Coordinates from ORCA-job reaction4-IEIP_ts_guess_scan_2-4_orca E -1288.397336397584
  Ir      0.587877     -0.726934      0.451076
  C       0.030731     -2.808354      0.330045
  C       0.126634     -2.365098      1.700537
  C       2.201758     -2.142861      0.730036
  C       1.289667     -2.644400     -0.273578
  C       1.497417     -2.011034      1.938934
  N      -1.046823      0.180808     -0.519677
  C      -2.314143      0.521879      0.143156
  C      -3.137314      1.549906     -0.615335
  H      -3.969299      1.866154      0.012259
  H      -3.573876      1.151351     -1.532684
  H      -2.558868      2.441934     -0.858083
  C      -3.109456     -0.749982      0.409791
  H      -2.016774      0.953584      1.100411
  H      -4.020746     -0.502588      0.952043
  H      -3.399054     -1.239252     -0.521171
  H      -2.554708     -1.461224      1.020248
  C      -0.833870      0.391116     -1.760583
  C       0.522175      0.154614     -2.215778
  H      -1.603203      0.762824     -2.431497
  C       1.626582      0.533375     -1.460558
  C       2.828761      0.096691     -2.091034
  S       0.944279     -0.667600     -3.653344
  C       2.613535     -0.555259     -3.263538
  H       1.548009      1.417516     -0.685268
  H       3.816447      0.312381     -1.710135
  H       3.349039     -0.957093     -3.943942
  H      -0.864582     -3.166394     -0.157577
  H      -0.654809     -2.402619      2.445378
  H       1.894400     -1.625090      2.866846
  O       1.258868      2.464718      0.264260
  O       0.539501      0.895039      1.674264
  C       0.886217      2.104913      1.376682
  C       0.824210      3.069478      2.528072
  H       0.762388      4.092794      2.167789
  H       1.736904      2.978042      3.120096
  H      -0.011949      2.856194      3.190742
  H       3.244803     -1.910521      0.574402
  H       1.538640     -2.859816     -1.302546
39
Coordinates from ORCA-job reaction4-IEIP_ts_guess_scan_2-4_orca E -1288.395998451649
  Ir      0.570839     -0.727859      0.461154
  C       0.009023     -2.808447      0.373628
  C       0.102852     -2.342445      1.736336
  C       2.180521     -2.141576      0.766820
  C       1.269527     -2.657840     -0.229985
  C       1.473684     -1.987834      1.971734
  N      -1.055653      0.162352     -0.528149
  C      -2.328297      0.497252      0.129082
  C      -3.156457      1.519541     -0.631909
  H      -3.992042      1.830603     -0.006488
  H      -3.588427      1.117718     -1.549958
  H      -2.583342      2.415272     -0.873602
  C      -3.117245     -0.778849      0.394835
  H      -2.037196      0.931769      1.086960
  H      -4.031820     -0.536183      0.933737
  H      -3.400783     -1.271047     -0.536444
  H      -2.560366     -1.485972      1.007993
  C      -0.842355      0.373773     -1.768025
  C       0.514192      0.156681     -2.230189
  H      -1.614089      0.746338     -2.435416
  C       1.617002      0.508981     -1.461708
  C       2.823515      0.133524     -2.121725
  S       0.941217     -0.581072     -3.711003
  C       2.611970     -0.449155     -3.331191
  H       1.519629      1.314439     -0.613187
  H       3.809444      0.336524     -1.729290
  H       3.349644     -0.799868     -4.037176
  H      -0.886172     -3.172162     -0.110005
  H      -0.680531     -2.364913      2.479737
  H       1.869442     -1.586983      2.893834
  O       1.478599      2.422747      0.309747
  O       0.527064      0.914366      1.655333
  C       0.974115      2.097452      1.380783
  C       0.875875      3.073514      2.519761
  H       0.917562      4.095552      2.153123
  H       1.723171      2.924603      3.191959
  H      -0.029273      2.923609      3.104720
  H       3.224511     -1.914198      0.609647
  H       1.520019     -2.891016     -1.254734
39
Coordinates from ORCA-job reaction4-IEIP_ts_guess_scan_2-4_orca E -1288.397392274259
  Ir      0.580737     -0.721506      0.453975
  C       0.026928     -2.803275      0.340651
  C       0.118621     -2.354404      1.709253
  C       2.195789     -2.132999      0.742625
  C       1.287056     -2.639986     -0.261031
  C       1.487974     -1.997056      1.949224
  N      -1.049070      0.177413     -0.521462
  C      -2.320197      0.511526      0.139043
  C      -3.147329      1.538720     -0.616484
  H      -3.981621      1.848556      0.011268
  H      -3.581064      1.141790     -1.535832
  H      -2.572923      2.434508     -0.854903
  C      -3.111475     -0.764105      0.400073
  H      -2.026998      0.941316      1.098455
  H      -4.024956     -0.521892      0.941037
  H      -3.397084     -1.251618     -0.533039
  H      -2.555429     -1.475043      1.009515
  C      -0.835139      0.390566     -1.761312
  C       0.519484      0.158268     -2.220991
  H      -1.606136      0.760204     -2.431186
  C       1.626263      0.524246     -1.463474
  C       2.826748      0.095628     -2.101548
  S       0.938226     -0.635480     -3.674845
  C       2.608434     -0.533959     -3.285769
  H       1.551712      1.390864     -0.669323
  H       3.815234      0.298590     -1.715648
  H       3.341878     -0.927619     -3.973163
  H      -0.866729     -3.164349     -0.147765
  H      -0.664707     -2.389614      2.452187
  H       1.882011     -1.606308      2.876372
  O       1.336613      2.453873      0.282296
  O       0.527693      0.904402      1.668100
  C       0.914706      2.104486      1.380756
  C       0.842669      3.071127      2.529689
  H       0.820732      4.095522      2.167972
  H       1.733015      2.954780      3.150673
  H      -0.019967      2.881259      3.165032
  H       3.238975     -1.899862      0.588824
  H       1.538692     -2.859381     -1.288504
39
Coordinates from ORCA-job reaction4-IEIP_ts_guess_scan_2-4_orca E -1288.397407123512
  Ir      0.584915     -0.726644      0.454806
  C       0.025015     -2.807160      0.343349
  C       0.117210     -2.357767      1.711649
  C       2.195680     -2.143186      0.746054
  C       1.285949     -2.648212     -0.257807
  C       1.487424     -2.003970      1.951985
  N      -1.046416      0.176528     -0.522401
  C      -2.316524      0.513084      0.138777
  C      -3.141204      1.542767     -0.615982
  H      -3.974605      1.854223      0.012143
  H      -3.576076      1.147610     -1.535558
  H      -2.564666      2.437323     -0.853876
  C      -3.111035     -0.760738      0.398914
  H      -2.022130      0.941675      1.098356
  H      -4.023950     -0.516468      0.939872
  H      -3.397749     -1.246965     -0.534525
  H      -2.556938     -1.473469      1.007984
  C      -0.835199      0.385997     -1.763507
  C       0.519078      0.156465     -2.222723
  H      -1.607562      0.753183     -2.433273
  C       1.622470      0.525804     -1.462610
  C       2.825797      0.104938     -2.100285
  S       0.942015     -0.647315     -3.669496
  C       2.611787     -0.526772     -3.284372
  H       1.543153      1.401757     -0.677634
  H       3.812869      0.317159     -1.715778
  H       3.347900     -0.913858     -3.972639
  H      -0.869385     -3.165950     -0.145412
  H      -0.666604     -2.390324      2.454190
  H       1.882107     -1.613680      2.879057
  O       1.300992      2.461808      0.270779
  O       0.534927      0.901371      1.669642
  C       0.903394      2.105713      1.376398
  C       0.843447      3.070180      2.527762
  H       0.803065      4.094739      2.168117
  H       1.747177      2.962824      3.130799
  H      -0.004251      2.869928      3.179821
  H       3.239787     -1.913772      0.593021
  H       1.537504     -2.869636     -1.284855
39
Coordinates from ORCA-job reaction4-IEIP_ts_guess_scan_2-4_orca E -1288.397421038570
  Ir      0.584963     -0.725757      0.454710
  C       0.026355     -2.806197      0.342137
  C       0.117764     -2.357514      1.710625
  C       2.196486     -2.141233      0.745782
  C       1.287423     -2.646275     -0.258617
  C       1.487615     -2.002959      1.951522
  N      -1.045819      0.175868     -0.522063
  C      -2.315745      0.512096      0.139812
  C      -3.139919      1.543638     -0.612994
  H      -3.972750      1.854810      0.016036
  H      -3.575634      1.150372     -1.532976
  H      -2.562711      2.438061     -0.849750
  C      -3.111239     -0.761531      0.398044
  H      -2.020994      0.939027      1.100011
  H      -4.023995     -0.517384      0.939325
  H      -3.398263     -1.246163     -0.536130
  H      -2.557735     -1.475614      1.006066
  C      -0.835611      0.385243     -1.763277
  C       0.518385      0.157498     -2.223964
  H      -1.608838      0.752078     -2.432239
  C       1.621842      0.525829     -1.463634
  C       2.825220      0.101974     -2.099018
  S       0.942088     -0.636004     -3.675935
  C       2.611145     -0.530320     -3.282883
  H       1.542427      1.400001     -0.676685
  H       3.812190      0.308489     -1.711176
  H       3.347096     -0.922098     -3.968676
  H      -0.867677     -3.165129     -0.147203
  H      -0.666364     -2.390679      2.452795
  H       1.881731     -1.612774      2.878880
  O       1.301221      2.461793      0.270022
  O       0.534773      0.901486      1.669098
  C       0.903393      2.105609      1.375633
  C       0.841560      3.070941      2.526202
  H       0.800209      4.095194      2.165814
  H       1.745085      2.965031      3.129817
  H      -0.006276      2.870183      3.177946
  H       3.240567     -1.911251      0.593363
  H       1.539400     -2.867143     -1.285681
39
Coordinates from ORCA-job reaction4-IEIP_ts_guess_scan_2-4_orca E -1288.397427697901
  Ir      0.583743     -0.724777      0.456706
  C       0.026921     -2.805225      0.342193
  C       0.116488     -2.357425      1.711033
  C       2.196112     -2.138867      0.748474
  C       1.288542     -2.643963     -0.257197
  C       1.485753     -2.001914      1.953563
  N      -1.045322      0.174921     -0.520731
  C      -2.315607      0.510848      0.140786
  C      -3.138608      1.544277     -0.610792
  H      -3.971245      1.855421      0.018524
  H      -3.574629      1.152849     -1.531409
  H      -2.560372      2.438397     -0.846174
  C      -3.112200     -0.762607      0.396539
  H      -2.021273      0.936122      1.101828
  H      -4.025218     -0.518662      0.937483
  H      -3.398809     -1.245660     -0.538581
  H      -2.559662     -1.478023      1.003908
  C      -0.835173      0.383719     -1.762048
  C       0.518362      0.155296     -2.224083
  H      -1.609043      0.749312     -2.430938
  C       1.622906      0.521409     -1.463917
  C       2.825698      0.099924     -2.101847
  S       0.940760     -0.635109     -3.678006
  C       2.610445     -0.526717     -3.288543
  H       1.544053      1.393573     -0.674503
  H       3.813036      0.305358     -1.714412
  H       3.345661     -0.914807     -3.977219
  H      -0.866317     -3.164397     -0.148427
  H      -0.668500     -2.391407      2.452246
  H       1.878564     -1.611912      2.881554
  O       1.308681      2.457017      0.271818
  O       0.532664      0.901656      1.670364
  C       0.905164      2.104281      1.376488
  C       0.840852      3.072227      2.524806
  H       0.802947      4.095795      2.162129
  H       1.741888      2.965775      3.132048
  H      -0.009836      2.874559      3.173772
  H       3.240215     -1.908052      0.597439
  H       1.541728     -2.864021     -1.284133
39
Coordinates from ORCA-job reaction4-IEIP_ts_guess_scan_2-4_orca E -1288.397434657452
  Ir      0.584290     -0.725238      0.458359
  C       0.027095     -2.805545      0.343589
  C       0.115778     -2.357826      1.712493
  C       2.196222     -2.139766      0.751407
  C       1.289200     -2.644655     -0.254925
  C       1.484959     -2.002568      1.955951
  N      -1.044964      0.174042     -0.520424
  C      -2.315574      0.509193      0.140993
  C      -3.136984      1.545465     -0.608481
  H      -3.969440      1.856192      0.021288
  H      -3.573258      1.156942     -1.530207
  H      -2.557408      2.439328     -0.841514
  C      -3.113428     -0.764304      0.392546
  H      -2.021806      0.931686      1.103408
  H      -4.026783     -0.521085      0.933243
  H      -3.399471     -1.244629     -0.544151
  H      -2.562059     -1.481840      0.998501
  C      -0.835748      0.382345     -1.762106
  C       0.517370      0.155166     -2.225317
  H      -1.610712      0.746408     -2.430583
  C       1.621716      0.519687     -1.464020
  C       2.824766      0.100403     -2.102637
  S       0.940316     -0.632442     -3.680447
  C       2.609850     -0.523883     -3.290718
  H       1.542250      1.392264     -0.674665
  H       3.811969      0.305525     -1.714728
  H       3.345239     -0.909956     -3.980338
  H      -0.865856     -3.164448     -0.147768
  H      -0.669807     -2.391488      2.453086
  H       1.877231     -1.612635      2.884203
  O       1.307419      2.456783      0.270583
  O       0.534120      0.902457      1.671716
  C       0.905314      2.104974      1.376134
  C       0.842541      3.074170      2.523474
  H       0.802851      4.097292      2.159748
  H       1.745059      2.969269      3.128790
  H      -0.006478      2.876380      3.174579
  H       3.240574     -1.909474      0.601319
  H       1.543015     -2.864999     -1.281642
39
Coordinates from ORCA-job reaction4-IEIP_ts_guess_scan_2-4_orca E -1288.397445081149
  Ir      0.585234     -0.725656      0.461776
  C       0.028279     -2.805710      0.344941
  C       0.114271     -2.358842      1.714247
  C       2.196721     -2.140278      0.757332
  C       1.291541     -2.644541     -0.251065
  C       1.482987     -2.003640      1.960511
  N      -1.043480      0.172003     -0.519189
  C      -2.314429      0.505975      0.142482
  C      -3.131954      1.549467     -0.601382
  H      -3.963341      1.859758      0.030038
  H      -3.569734      1.168132     -1.525382
  H      -2.548749      2.442274     -0.829271
  C      -3.115653     -0.767266      0.384386
  H      -2.021342      0.921601      1.108066
  H      -4.029419     -0.525503      0.925051
  H      -3.401028     -1.240921     -0.555896
  H      -2.566935     -1.490047      0.986551
  C      -0.836656      0.378418     -1.761736
  C       0.515420      0.153904     -2.227539
  H      -1.614086      0.739053     -2.429231
  C       1.619506      0.515802     -1.464542
  C       2.822921      0.100097     -2.104098
  S       0.939288     -0.628095     -3.685114
  C       2.608465     -0.520116     -3.294608
  H       1.538905      1.389436     -0.675577
  H       3.809933      0.304257     -1.715237
  H       3.344062     -0.903101     -3.985732
  H      -0.863651     -3.164197     -0.148585
  H      -0.672938     -2.392512      2.453114
  H       1.873525     -1.614189      2.889701
  O       1.302704      2.456033      0.266982
  O       0.536485      0.903278      1.673912
  C       0.904788      2.105622      1.374660
  C       0.843402      3.077735      2.519539
  H       0.798212      4.099694      2.153216
  H       1.749172      2.977898      3.120847
  H      -0.001796      2.878467      3.175133
  H       3.241542     -1.910471      0.609816
  H       1.547201     -2.864627     -1.277377
39
Coordinates from ORCA-job reaction4-IEIP_ts_guess_scan_2-4_orca E -1288.397447157638
  Ir      0.585188     -0.725200      0.463236
  C       0.029395     -2.805531      0.345374
  C       0.113712     -2.358816      1.714854
  C       2.197096     -2.139039      0.760221
  C       1.293167     -2.643528     -0.249224
  C       1.482021     -2.003029      1.962677
  N      -1.043408      0.171015     -0.518555
  C      -2.314698      0.503999      0.143080
  C      -3.130277      1.551039     -0.597980
  H      -3.961287      1.860974      0.034121
  H      -3.568554      1.173295     -1.523213
  H      -2.545273      2.443352     -0.823130
  C      -3.117295     -0.769382      0.379717
  H      -2.022254      0.915987      1.110405
  H      -4.031388     -0.528815      0.920375
  H      -3.402100     -1.239512     -0.562501
  H      -2.569672     -1.494756      0.979773
  C      -0.837390      0.376886     -1.761372
  C       0.514372      0.153424     -2.228121
  H      -1.615761      0.736276     -2.428463
  C       1.618664      0.514225     -1.464816
  C       2.821926      0.099199     -2.104864
  S       0.938166     -0.626213     -3.686953
  C       2.607244     -0.519430     -3.296226
  H       1.538262      1.387830     -0.675531
  H       3.809032      0.302608     -1.715852
  H       3.342693     -0.901693     -3.987912
  H      -0.861780     -3.164408     -0.149226
  H      -0.674342     -2.392870      2.452804
  H       1.871414     -1.613624      2.892367
  O       1.302929      2.455523      0.266002
  O       0.536349      0.904340      1.674429
  C       0.904231      2.106473      1.373843
  C       0.844966      3.079311      2.518198
  H       0.799303      4.101024      2.151246
  H       1.751833      2.979818      3.117924
  H       0.000922      2.880563      3.175408
  H       3.242013     -1.908866      0.613958
  H       1.549954     -2.863263     -1.275332
