39
Coordinates from ORCA-job reaction4-IEIP_ts_guess_scan_9-5_orca E -1288.400412921437
  Ir      0.622098     -0.709718      0.425795
  C       0.096507     -2.812738      0.336718
  C       0.057394     -2.352708      1.699011
  C       2.214898     -2.097213      0.911362
  C       1.406892     -2.644502     -0.152787
  C       1.384386     -1.948589      2.043816
  N      -1.047526      0.145499     -0.525102
  C      -2.312908      0.417382      0.174902
  C      -3.102677      1.573311     -0.420341
  H      -3.924477      1.820994      0.250090
  H      -3.551575      1.328476     -1.383956
  H      -2.492204      2.469539     -0.532949
  C      -3.143683     -0.859457      0.235255
  H      -2.017368      0.689246      1.189155
  H      -4.047665     -0.682779      0.816369
  H      -3.446053     -1.181844     -0.761942
  H      -2.603470     -1.675793      0.712250
  C      -0.888142      0.398796     -1.764390
  C       0.443370      0.196913     -2.257080
  H      -1.688606      0.778980     -2.391736
  C       1.508871      0.254756     -1.359279
  C       2.724553     -0.080530     -2.028898
  S       0.907464     -0.240734     -3.829943
  C       2.548952     -0.366454     -3.346841
  H       1.517760      1.216740     -0.609218
  H       3.696903     -0.054160     -1.558851
  H       3.302203     -0.621380     -4.076858
  H      -0.739655     -3.203915     -0.224833
  H      -0.789306     -2.388479      2.367933
  H       1.683911     -1.526957      2.992819
  O       1.442367      2.412832      0.168275
  O       0.545216      0.965024      1.601871
  C       0.977304      2.128924      1.276522
  C       0.918507      3.163357      2.364273
  H       0.893991      4.165499      1.944975
  H       1.817415      3.081222      2.978296
  H       0.062937      3.009501      3.017997
  H       3.270529     -1.877163      0.864360
  H       1.750261     -2.892687     -1.146301
39
Coordinates from ORCA-job reaction4-IEIP_ts_guess_scan_9-5_orca E -1288.400252528797
  Ir      0.617912     -0.701229      0.420865
  C       0.099347     -2.808358      0.338535
  C       0.058969     -2.347203      1.700264
  C       2.214503     -2.083750      0.911918
  C       1.409031     -2.636547     -0.151138
  C       1.383047     -1.935989      2.043546
  N      -1.058612      0.143652     -0.529346
  C      -2.324065      0.414218      0.171173
  C      -3.118661      1.564170     -0.429201
  H      -3.941061      1.811842      0.240477
  H      -3.567047      1.312915     -1.391411
  H      -2.511824      2.462284     -0.546508
  C      -3.149917     -0.865414      0.238560
  H      -2.028646      0.692111      1.183826
  H      -4.053747     -0.689543      0.820146
  H      -3.452475     -1.193542     -0.756715
  H      -2.605857     -1.677454      0.718486
  C      -0.899373      0.390427     -1.774728
  C       0.435900      0.192111     -2.269813
  H      -1.701823      0.763795     -2.403586
  C       1.499858      0.256866     -1.370025
  C       2.718445     -0.075494     -2.036485
  S       0.904518     -0.249456     -3.840000
  C       2.546108     -0.367618     -3.353448
  H       1.507114      1.241047     -0.638650
  H       3.690138     -0.041532     -1.565390
  H       3.301716     -0.622083     -4.081103
  H      -0.735259     -3.204106     -0.222175
  H      -0.787219     -2.385694      2.369598
  H       1.680721     -1.511547      2.991874
  O       1.562720      2.379946      0.221952
  O       0.529544      0.975323      1.600182
  C       1.019133      2.121885      1.300909
  C       0.934097      3.163024      2.380151
  H       0.972033      4.163414      1.957594
  H       1.791050      3.050516      3.047060
  H       0.035850      3.043933      2.981692
  H       3.269584     -1.861131      0.865425
  H       1.753615     -2.886597     -1.143771
39
Coordinates from ORCA-job reaction4-IEIP_ts_guess_scan_9-5_orca E -1288.400116273757
  Ir      0.627139     -0.708670      0.422248
  C       0.095709     -2.816266      0.337027
  C       0.058373     -2.363034      1.701348
  C       2.213466     -2.104740      0.913330
  C       1.406307     -2.649735     -0.152095
  C       1.381687     -1.957043      2.044660
  N      -1.049293      0.149191     -0.517425
  C      -2.314090      0.418566      0.184552
  C      -3.102792      1.577000     -0.407277
  H      -3.926070      1.821524      0.262450
  H      -3.549399      1.336252     -1.373027
  H      -2.492493      2.474016     -0.514783
  C      -3.145199     -0.858229      0.238640
  H      -2.019238      0.685779      1.200236
  H      -4.048790     -0.684517      0.821234
  H      -3.448286     -1.175370     -0.760045
  H      -2.604634     -1.677030      0.710911
  C      -0.882604      0.409499     -1.768159
  C       0.457407      0.208298     -2.271521
  H      -1.682787      0.793011     -2.393698
  C       1.520847      0.241552     -1.367005
  C       2.736157     -0.103370     -2.034499
  S       0.924504     -0.217845     -3.845899
  C       2.562888     -0.374243     -3.355586
  H       1.559909      1.249674     -0.647734
  H       3.707191     -0.090431     -1.560685
  H       3.316401     -0.631962     -4.084127
  H      -0.740787     -3.206056     -0.225115
  H      -0.787367     -2.401270      2.371082
  H       1.680974     -1.538022      2.994877
  O       1.377658      2.416177      0.156548
  O       0.541805      0.966891      1.614324
  C       0.949300      2.134351      1.281522
  C       0.906016      3.173707      2.364140
  H       0.854869      4.173232      1.940785
  H       1.822872      3.107807      2.952965
  H       0.071328      3.010280      3.041777
  H       3.270218     -1.889921      0.869731
  H       1.750174     -2.899862     -1.144968
39
Coordinates from ORCA-job reaction4-IEIP_ts_guess_scan_9-5_orca E -1288.400676978561
  Ir      0.620209     -0.710662      0.425450
  C       0.089179     -2.815475      0.347978
  C       0.052063     -2.354805      1.709675
  C       2.208103     -2.101544      0.919398
  C       1.399775     -2.651089     -0.142862
  C       1.377114     -1.948622      2.051081
  N      -1.051350      0.143396     -0.522245
  C      -2.317716      0.410597      0.176307
  C      -3.108407      1.566350     -0.418021
  H      -3.933080      1.810040      0.250363
  H      -3.553310      1.323099     -1.383900
  H      -2.499850      2.464423     -0.526085
  C      -3.145738     -0.868284      0.231263
  H      -2.024485      0.679919      1.191868
  H      -4.050614     -0.695721      0.812247
  H      -3.446487     -1.187792     -0.767328
  H      -2.603906     -1.684970      0.705789
  C      -0.888898      0.403323     -1.765375
  C       0.446414      0.207784     -2.264705
  H      -1.690316      0.785632     -2.389991
  C       1.510424      0.245558     -1.362349
  C       2.727806     -0.083858     -2.033315
  S       0.913699     -0.209290     -3.841373
  C       2.555196     -0.344891     -3.356683
  H       1.530886      1.225485     -0.618734
  H       3.698961     -0.066985     -1.560250
  H       3.309814     -0.588770     -4.089036
  H      -0.747777     -3.207167     -0.212039
  H      -0.793924     -2.388507      2.379452
  H       1.677135     -1.524695      2.998891
  O       1.458310      2.417276      0.165603
  O       0.547573      0.971100      1.596616
  C       0.987585      2.131937      1.273066
  C       0.929733      3.167619      2.358673
  H       0.909669      4.169430      1.938319
  H       1.826694      3.082899      2.975106
  H       0.071682      3.016842      3.009704
  H       3.264587     -1.885693      0.873346
  H       1.742619     -2.904699     -1.135167
39
Coordinates from ORCA-job reaction4-IEIP_ts_guess_scan_9-5_orca E -1288.400732422685
  Ir      0.620770     -0.710361      0.425132
  C       0.091576     -2.815749      0.348983
  C       0.052294     -2.355279      1.710508
  C       2.209033     -2.099730      0.922711
  C       1.402733     -2.650507     -0.140258
  C       1.376157     -1.947261      2.053108
  N      -1.051572      0.142181     -0.523689
  C      -2.317696      0.410237      0.175394
  C      -3.108691      1.566144     -0.418347
  H      -3.932673      1.810151      0.250751
  H      -3.554637      1.322873     -1.383719
  H      -2.500027      2.464067     -0.527117
  C      -3.146611     -0.868060      0.231696
  H      -2.023734      0.679871      1.190749
  H      -4.050979     -0.694577      0.813212
  H      -3.448249     -1.187871     -0.766529
  H      -2.605045     -1.684821      0.706280
  C      -0.889606      0.401966     -1.767055
  C       0.445121      0.206982     -2.267752
  H      -1.691484      0.784272     -2.391026
  C       1.508989      0.242750     -1.365317
  C       2.726176     -0.084739     -2.037295
  S       0.912721     -0.200368     -3.846677
  C       2.553018     -0.345195     -3.360735
  H       1.532050      1.229976     -0.629677
  H       3.697299     -0.070199     -1.564119
  H       3.307204     -0.589656     -4.093293
  H      -0.744202     -3.208435     -0.212073
  H      -0.794557     -2.389421      2.379148
  H       1.674516     -1.522581      3.001117
  O       1.471744      2.409675      0.173747
  O       0.543242      0.971814      1.597314
  C       0.988494      2.130372      1.277221
  C       0.929016      3.167854      2.361344
  H       0.917411      4.169297      1.939798
  H       1.821270      3.078934      2.984041
  H       0.065721      3.022594      3.006691
  H       3.265500     -1.883457      0.878394
  H       1.747075     -2.904553     -1.131920
39
Coordinates from ORCA-job reaction4-IEIP_ts_guess_scan_9-5_orca E -1288.400758710459
  Ir      0.621136     -0.713178      0.426504
  C       0.089989     -2.818011      0.352852
  C       0.049703     -2.357184      1.714070
  C       2.207414     -2.103402      0.927983
  C       1.401904     -2.654400     -0.135293
  C       1.373136     -1.949396      2.057291
  N      -1.050500      0.140733     -0.523500
  C      -2.316722      0.408689      0.175777
  C      -3.107136      1.566236     -0.415628
  H      -3.930844      1.809400      0.254094
  H      -3.553467      1.325111     -1.381355
  H      -2.498013      2.464059     -0.522763
  C      -3.146886     -0.868915      0.230057
  H      -2.022723      0.676410      1.191655
  H      -4.051077     -0.695510      0.811866
  H      -3.448829     -1.186771     -0.768705
  H      -2.606095     -1.686965      0.703272
  C      -0.888471      0.402397     -1.766750
  C       0.445565      0.207652     -2.269047
  H      -1.690614      0.785791     -2.389739
  C       1.508967      0.236755     -1.365826
  C       2.726587     -0.085202     -2.039734
  S       0.913248     -0.191111     -3.849922
  C       2.554378     -0.332725     -3.365821
  H       1.534078      1.227958     -0.633053
  H       3.697512     -0.073742     -1.566078
  H       3.309100     -0.568991     -4.100497
  H      -0.745468     -3.210419     -0.208890
  H      -0.797940     -2.389879      2.381750
  H       1.670822     -1.523972      3.005188
  O       1.470683      2.407766      0.169972
  O       0.545446      0.971480      1.596507
  C       0.990971      2.128977      1.275403
  C       0.929129      3.169605      2.356496
  H       0.914122      4.169827      1.932162
  H       1.822211      3.085100      2.978595
  H       0.066845      3.023561      3.003048
  H       3.264239     -1.888647      0.885122
  H       1.746969     -2.909898     -1.126323
39
Coordinates from ORCA-job reaction4-IEIP_ts_guess_scan_9-5_orca E -1288.400795130885
  Ir      0.620472     -0.718566      0.429841
  C       0.086602     -2.822096      0.361820
  C       0.042727     -2.359613      1.722107
  C       2.203159     -2.108918      0.941357
  C       1.400484     -2.661400     -0.122952
  C       1.364882     -1.951483      2.067642
  N      -1.048984      0.136646     -0.523465
  C      -2.315813      0.402816      0.175720
  C      -3.105243      1.563638     -0.410696
  H      -3.929049      1.804038      0.259870
  H      -3.551409      1.327351     -1.377691
  H      -2.495636      2.461675     -0.513361
  C      -3.147478     -0.874088      0.223924
  H      -2.022628      0.665990      1.193039
  H      -4.051896     -0.702131      0.805782
  H      -3.448988     -1.187190     -0.776476
  H      -2.607970     -1.694842      0.693902
  C      -0.887056      0.403843     -1.765532
  C       0.445601      0.212234     -2.270777
  H      -1.689823      0.790465     -2.385794
  C       1.507919      0.225338     -1.365860
  C       2.726483     -0.084258     -2.044038
  S       0.915337     -0.155071     -3.858184
  C       2.555629     -0.307589     -3.374662
  H       1.536062      1.220905     -0.634541
  H       3.696703     -0.083528     -1.568827
  H       3.310840     -0.531213     -4.112772
  H      -0.747436     -3.214693     -0.201918
  H      -0.807218     -2.389141      2.386950
  H       1.660132     -1.523659      3.015239
  O       1.466366      2.407354      0.158111
  O       0.549396      0.972460      1.592249
  C       0.991073      2.129192      1.266381
  C       0.936492      3.172485      2.345489
  H       0.916454      4.171694      1.919039
  H       1.834809      3.090796      2.960396
  H       0.079774      3.026494      2.999416
  H       3.260607     -1.896631      0.902289
  H       1.747995     -2.920116     -1.112279
39
Coordinates from ORCA-job reaction4-IEIP_ts_guess_scan_9-5_orca E -1288.400808902891
  Ir      0.620285     -0.720457      0.431296
  C       0.085607     -2.823155      0.364378
  C       0.038761     -2.359645      1.724252
  C       2.201331     -2.110590      0.948269
  C       1.400887     -2.663669     -0.117347
  C       1.360275     -1.951679      2.072415
  N      -1.047944      0.135077     -0.522999
  C      -2.314819      0.399828      0.176596
  C      -3.103697      1.562383     -0.407176
  H      -3.927464      1.801391      0.263942
  H      -3.549827      1.328661     -1.374810
  H      -2.493759      2.460439     -0.507612
  C      -3.146919     -0.876927      0.221104
  H      -2.021994      0.660512      1.194646
  H      -4.051568     -0.706212      0.802981
  H      -3.448045     -1.187268     -0.780269
  H      -2.607926     -1.699176      0.689041
  C      -0.886921      0.404990     -1.764300
  C       0.444649      0.214438     -2.271203
  H      -1.690302      0.792980     -2.382886
  C       1.507216      0.219874     -1.366534
  C       2.725505     -0.084840     -2.047272
  S       0.914296     -0.138054     -3.861909
  C       2.554220     -0.296893     -3.379731
  H       1.536932      1.215234     -0.633772
  H       3.695696     -0.090059     -1.572076
  H       3.309052     -0.515386     -4.119768
  H      -0.747137     -3.215906     -0.201151
  H      -0.812899     -2.387736      2.386953
  H       1.653567     -1.522822      3.020157
  O       1.475756      2.403681      0.156587
  O       0.550867      0.972994      1.590239
  C       0.996348      2.127991      1.263894
  C       0.937800      3.174444      2.339685
  H       0.918695      4.172360      1.910172
  H       1.834274      3.094955      2.957551
  H       0.079085      3.030007      2.991290
  H       3.259033     -1.899119      0.911774
  H       1.750453     -2.923454     -1.105669
39
Coordinates from ORCA-job reaction4-IEIP_ts_guess_scan_9-5_orca E -1288.400819767363
  Ir      0.620121     -0.721405      0.432812
  C       0.085777     -2.823667      0.365651
  C       0.034299     -2.358943      1.725115
  C       2.199791     -2.110892      0.956456
  C       1.402890     -2.664746     -0.111407
  C       1.354764     -1.950957      2.077571
  N      -1.047362      0.133957     -0.522367
  C      -2.314547      0.396660      0.177598
  C      -3.103069      1.561069     -0.403129
  H      -3.926890      1.798304      0.268563
  H      -3.549046      1.330226     -1.371516
  H      -2.492927      2.459261     -0.500977
  C      -3.146827     -0.880128      0.217411
  H      -2.022437      0.654452      1.196559
  H      -4.051963     -0.711256      0.799100
  H      -3.447180     -1.187182     -0.785206
  H      -2.608357     -1.704068      0.682921
  C      -0.887190      0.406232     -1.763209
  C       0.443423      0.216202     -2.271660
  H      -1.691262      0.794875     -2.380412
  C       1.506512      0.214308     -1.367691
  C       2.724254     -0.086364     -2.050853
  S       0.912265     -0.125610     -3.865011
  C       2.552347     -0.286895     -3.385092
  H       1.538281      1.208710     -0.632505
  H       3.694600     -0.096602     -1.576104
  H       3.306823     -0.499655     -4.127165
  H      -0.744815     -3.217059     -0.202568
  H      -0.819706     -2.386166      2.384841
  H       1.644934     -1.521171      3.025855
  O       1.484921      2.399104      0.155486
  O       0.551026      0.974096      1.589015
  C       0.998906      2.127776      1.261052
  C       0.941106      3.176440      2.334616
  H       0.924267      4.173425      1.902842
  H       1.836865      3.096775      2.953495
  H       0.081425      3.034893      2.985515
  H       3.257661     -1.899675      0.923562
  H       1.755692     -2.925136     -1.098423
39
Coordinates from ORCA-job reaction4-IEIP_ts_guess_scan_9-5_orca E -1288.400830246175
  Ir      0.620771     -0.721400      0.433723
  C       0.087690     -2.823777      0.364217
  C       0.031085     -2.358534      1.723544
  C       2.199521     -2.110362      0.963056
  C       1.406598     -2.664506     -0.107629
  C       1.350283     -1.950566      2.081049
  N      -1.046712      0.133813     -0.521124
  C      -2.314061      0.394652      0.179502
  C      -3.102101      1.561265     -0.397698
  H      -3.925777      1.796828      0.274764
  H      -3.548188      1.333622     -1.366780
  H      -2.491522      2.459436     -0.492901
  C      -3.146834     -0.881947      0.214348
  H      -2.022429      0.649172      1.199389
  H      -4.052303     -0.714956      0.796088
  H      -3.446709     -1.185271     -0.789549
  H      -2.609003     -1.707896      0.676996
  C      -0.887330      0.407899     -1.761873
  C       0.442593      0.218071     -2.271860
  H      -1.691984      0.797238     -2.377814
  C       1.506569      0.210223     -1.369192
  C       2.723193     -0.089308     -2.054345
  S       0.910042     -0.115747     -3.867548
  C       2.549626     -0.284172     -3.389316
  H       1.541379      1.202872     -0.630651
  H       3.693912     -0.103919     -1.580495
  H       3.303149     -0.495539     -4.132753
  H      -0.740443     -3.217903     -0.207053
  H      -0.825274     -2.386011      2.380227
  H       1.636922     -1.520636      3.030344
  O       1.493158      2.394523      0.155770
  O       0.551295      0.974686      1.589141
  C       1.002755      2.126949      1.260256
  C       0.940716      3.178794      2.330298
  H       0.923896      4.174344      1.895168
  H       1.835009      3.102266      2.951641
  H       0.079430      3.038323      2.979268
  H       3.257439     -1.898859      0.933998
  H       1.763008     -2.924479     -1.093468
39
Coordinates from ORCA-job reaction4-IEIP_ts_guess_scan_9-5_orca E -1288.400841590406
  Ir      0.621683     -0.720398      0.434635
  C       0.091734     -2.823704      0.360603
  C       0.027058     -2.358376      1.719841
  C       2.199603     -2.108128      0.971876
  C       1.413135     -2.662821     -0.103222
  C       1.343858     -1.949760      2.085169
  N      -1.046227      0.134059     -0.519336
  C      -2.313735      0.392831      0.181870
  C      -3.101073      1.562068     -0.391244
  H      -3.924668      1.795741      0.281955
  H      -3.547129      1.338155     -1.361205
  H      -2.489894      2.460157     -0.483286
  C      -3.147154     -0.883482      0.210781
  H      -2.022671      0.643440      1.202858
  H      -4.052893     -0.718862      0.792795
  H      -3.446686     -1.182137     -0.794626
  H      -2.609986     -1.711957      0.669712
  C      -0.887908      0.409126     -1.760288
  C       0.441138      0.219451     -2.272234
  H      -1.693444      0.798672     -2.374955
  C       1.506318      0.205982     -1.371549
  C       2.721344     -0.093329     -2.058942
  S       0.906000     -0.109529     -3.870097
  C       2.545420     -0.283303     -3.394500
  H       1.545688      1.196626     -0.628989
  H       3.692745     -0.111261     -1.586632
  H       3.297732     -0.493577     -4.139468
  H      -0.732472     -3.219259     -0.215316
  H      -0.832683     -2.387522      2.372043
  H       1.624723     -1.520049      3.036297
  O       1.501840      2.388843      0.156831
  O       0.550816      0.975521      1.590178
  C       1.006286      2.126089      1.260033
  C       0.941045      3.181302      2.326434
  H       0.923521      4.175321      1.887763
  H       1.834677      3.108367      2.949116
  H       0.078971      3.041851      2.974529
  H       3.257433     -1.895525      0.948678
  H       1.775224     -2.921432     -1.087364
39
Coordinates from ORCA-job reaction4-IEIP_ts_guess_scan_9-5_orca E -1288.400849157250
  Ir      0.622207     -0.719343      0.435352
  C       0.096238     -2.823989      0.356909
  C       0.023317     -2.359077      1.716083
  C       2.199640     -2.105174      0.980529
  C       1.419986     -2.660839     -0.098899
  C       1.337234     -1.948920      2.089107
  N      -1.046494      0.134050     -0.517971
  C      -2.314203      0.391243      0.183478
  C      -3.100824      1.562732     -0.386187
  H      -3.924479      1.794766      0.287486
  H      -3.546687      1.342037     -1.356971
  H      -2.489110      2.460742     -0.475368
  C      -3.148273     -0.884756      0.207476
  H      -2.023656      0.638483      1.205423
  H      -4.053973     -0.722215      0.790144
  H      -3.447945     -1.179209     -0.799137
  H      -2.611470     -1.715455      0.662847
  C      -0.889030      0.409202     -1.759193
  C       0.439287      0.219958     -2.272737
  H      -1.695380      0.798458     -2.373016
  C       1.505394      0.202971     -1.373620
  C       2.719263     -0.096019     -2.062813
  S       0.901958     -0.106360     -3.872106
  C       2.541483     -0.282751     -3.398738
  H       1.548846      1.192344     -0.628130
  H       3.691270     -0.115470     -1.591826
  H       3.292932     -0.492028     -4.144853
  H      -0.723928     -3.221209     -0.223595
  H      -0.839692     -2.390621      2.363856
  H       1.611968     -1.519392      3.042120
  O       1.509329      2.384790      0.157572
  O       0.550583      0.976734      1.590787
  C       1.009761      2.125647      1.259759
  C       0.943730      3.183233      2.323764
  H       0.924991      4.176205      1.882714
  H       1.837862      3.112962      2.946017
  H       0.082090      3.044405      2.972526
  H       3.257274     -1.891112      0.963286
  H       1.787874     -2.917832     -1.081333
39
Coordinates from ORCA-job reaction4-IEIP_ts_guess_scan_9-5_orca E -1288.400856511648
  Ir      0.622372     -0.718336      0.436002
  C       0.102079     -2.824698      0.352127
  C       0.018376     -2.360801      1.711236
  C       2.199322     -2.100933      0.991614
  C       1.428785     -2.658230     -0.093300
  C       1.328179     -1.947855      2.094058
  N      -1.047274      0.133623     -0.516626
  C      -2.315086      0.389277      0.185100
  C      -3.100701      1.563349     -0.380725
  H      -3.924476      1.793590      0.293400
  H      -3.546270      1.346360     -1.352475
  H      -2.488287      2.461199     -0.466578
  C      -3.149975     -0.886294      0.203877
  H      -2.024976      0.632726      1.208076
  H      -4.055190     -0.726147      0.787964
  H      -3.450512     -1.175778     -0.803930
  H      -2.613232     -1.719563      0.654670
  C      -0.890900      0.408520     -1.758102
  C       0.436569      0.219962     -2.273418
  H      -1.698235      0.797179     -2.371078
  C       1.503636      0.200117     -1.375870
  C       2.716449     -0.098194     -2.067045
  S       0.896971     -0.103632     -3.874233
  C       2.536817     -0.281696     -3.403287
  H       1.551782      1.188512     -0.627982
  H       3.689094     -0.118633     -1.597425
  H       3.287436     -0.489640     -4.150608
  H      -0.712796     -3.224092     -0.234284
  H      -0.848843     -2.395738      2.353192
  H       1.594697     -1.518367      3.049439
  O       1.518110      2.381085      0.157800
  O       0.550573      0.978434      1.590404
  C       1.014318      2.125294      1.258866
  C       0.948778      3.185074      2.320804
  H       0.927840      4.177080      1.877621
  H       1.844438      3.117694      2.941176
  H       0.088645      3.046508      2.971567
  H       3.256611     -1.884793      0.982193
  H       1.804245     -2.912974     -1.073480
39
Coordinates from ORCA-job reaction4-IEIP_ts_guess_scan_9-5_orca E -1288.400864688895
  Ir      0.622198     -0.717571      0.436637
  C       0.110935     -2.826231      0.344879
  C       0.011012     -2.364341      1.703890
  C       2.198558     -2.094448      1.007987
  C       1.441956     -2.654470     -0.084983
  C       1.314308     -1.946499      2.101204
  N      -1.048888      0.132557     -0.515052
  C      -2.316672      0.386358      0.187259
  C      -3.100651      1.564117     -0.373204
  H      -3.924604      1.791941      0.301516
  H      -3.545801      1.352465     -1.346317
  H      -2.487115      2.461629     -0.454301
  C      -3.152872     -0.888477      0.199116
  H      -2.026948      0.624535      1.211580
  H      -4.056883     -0.731640      0.785957
  H      -3.455452     -1.170787     -0.810122
  H      -2.615882     -1.725388      0.642893
  C      -0.894120      0.407198     -1.756743
  C       0.432270      0.219492     -2.274322
  H      -1.702747      0.794987     -2.368656
  C       1.500590      0.196949     -1.378615
  C       2.712229     -0.100245     -2.072401
  S       0.889918     -0.100639     -3.876753
  C       2.530373     -0.280041     -3.408912
  H       1.555016      1.184491     -0.628749
  H       3.685644     -0.121538     -1.604421
  H       3.279954     -0.486167     -4.157776
  H      -0.695913     -3.228813     -0.250350
  H      -0.862519     -2.404369      2.336929
  H       1.568310     -1.516838      3.059937
  O       1.530486      2.377154      0.157234
  O       0.551077      0.981136      1.588388
  C       1.021284      2.125149      1.256785
  C       0.957429      3.187384      2.316512
  H       0.932295      4.178236      1.870889
  H       1.856177      3.124175      2.932855
  H       0.100451      3.048488      2.971275
  H       3.255191     -1.875092      1.010396
  H       1.828776     -2.905657     -1.061701
39
Coordinates from ORCA-job reaction4-IEIP_ts_guess_scan_9-5_orca E -1288.400870590607
  Ir      0.621761     -0.717555      0.436833
  C       0.120856     -2.828223      0.336406
  C       0.002904     -2.369047      1.695282
  C       2.197399     -2.087377      1.025703
  C       1.456528     -2.650433     -0.076058
  C       1.298662     -1.945375      2.108566
  N      -1.050815      0.131154     -0.513605
  C      -2.318286      0.383287      0.189770
  C      -3.100406      1.565006     -0.364942
  H      -3.924455      1.790380      0.310488
  H      -3.545233      1.359162     -1.339438
  H      -2.485546      2.462037     -0.441003
  C      -3.156006     -0.890634      0.194772
  H      -2.028585      0.615979      1.215344
  H      -4.058204     -0.737240      0.785298
  H      -3.461608     -1.165226     -0.815687
  H      -2.618446     -1.731413      0.630550
  C      -0.897850      0.406020     -1.755334
  C       0.427594      0.218790     -2.275092
  H      -1.707630      0.793244     -2.366137
  C       1.497230      0.194567     -1.381036
  C       2.707772     -0.101867     -2.077389
  S       0.882607     -0.098502     -3.878749
  C       2.523829     -0.278867     -3.413955
  H       1.557892      1.181735     -0.630723
  H       3.681882     -0.123907     -1.610882
  H       3.272261     -0.483583     -4.164353
  H      -0.676915     -3.234187     -0.268631
  H      -0.877696     -2.414374      2.318083
  H       1.538643     -1.515382      3.070779
  O       1.543160      2.374311      0.155637
  O       0.552109      0.984037      1.584552
  C       1.028743      2.125349      1.253593
  C       0.966778      3.189506      2.311605
  H       0.935630      4.179268      1.863846
  H       1.869600      3.131390      2.922482
  H       0.114104      3.049138      2.971560
  H       3.253149     -1.864512      1.041408
  H       1.855958     -2.897471     -1.048800
39
Coordinates from ORCA-job reaction4-IEIP_ts_guess_scan_9-5_orca E -1288.400872192995
  Ir      0.621524     -0.718258      0.436327
  C       0.127118     -2.829639      0.330449
  C      -0.001940     -2.372563      1.689296
  C       2.196564     -2.083415      1.036115
  C       1.465604     -2.648142     -0.071085
  C       1.288929     -1.945231      2.112448
  N      -1.052067      0.130270     -0.512847
  C      -2.319083      0.381658      0.191644
  C      -3.100060      1.565748     -0.359591
  H      -3.924063      1.789754      0.316362
  H      -3.544828      1.363458     -1.334851
  H      -2.484326      2.462417     -0.432698
  C      -3.157831     -0.891611      0.193039
  H      -2.028992      0.611265      1.217786
  H      -4.058543     -0.740106      0.786311
  H      -3.465883     -1.161650     -0.817896
  H      -2.619778     -1.734694      0.623747
  C      -0.900138      0.405938     -1.754422
  C       0.425062      0.218400     -2.275238
  H      -1.710267      0.793462     -2.364566
  C       1.495624      0.194277     -1.381994
  C       2.705493     -0.102590     -2.079696
  S       0.878569     -0.098723     -3.879105
  C       2.520370     -0.279491     -3.416010
  H       1.559381      1.181759     -0.633048
  H       3.679954     -0.125017     -1.613916
  H       3.267894     -0.484310     -4.167282
  H      -0.664890     -3.237580     -0.280762
  H      -0.887069     -2.420563      2.305438
  H       1.520205     -1.515031      3.076703
  O       1.549678      2.374072      0.153788
  O       0.553316      0.985658      1.580887
  C       1.032861      2.125941      1.250877
  C       0.971560      3.190567      2.308444
  H       0.934832      4.179760      1.859770
  H       1.877598      3.136652      2.914928
  H       0.122425      3.047843      2.972375
  H       3.251723     -1.858605      1.060308
  H       1.872845     -2.892492     -1.041296
39
Coordinates from ORCA-job reaction4-IEIP_ts_guess_scan_9-5_orca E -1288.400871521870
  Ir      0.621857     -0.719193      0.435689
  C       0.129008     -2.830255      0.327971
  C      -0.003568     -2.374014      1.686868
  C       2.196302     -2.083117      1.039271
  C       1.468527     -2.647996     -0.069831
  C       1.285781     -1.945930      2.113369
  N      -1.052040      0.130113     -0.512563
  C      -2.318643      0.381421      0.192778
  C      -3.099284      1.566370     -0.357114
  H      -3.923108      1.789949      0.319204
  H      -3.544236      1.365389     -1.332555
  H      -2.483203      2.462879     -0.429286
  C      -3.157875     -0.891515      0.193216
  H      -2.028028      0.610098      1.218963
  H      -4.057942     -0.740406      0.787570
  H      -3.467001     -1.160125     -0.817762
  H      -2.619765     -1.735424      0.622211
  C      -0.900455      0.406858     -1.753873
  C       0.424819      0.218608     -2.274926
  H      -1.710352      0.795402     -2.363632
  C       1.495880      0.194758     -1.381957
  C       2.705307     -0.102997     -2.080201
  S       0.877584     -0.099301     -3.878640
  C       2.519631     -0.280657     -3.416257
  H       1.559808      1.182803     -0.634698
  H       3.679893     -0.125976     -1.614696
  H       3.266496     -0.486207     -4.167982
  H      -0.661044     -3.238699     -0.285415
  H      -0.890458     -2.421854      2.300496
  H       1.514360     -1.515728      3.078263
  O       1.549854      2.375090      0.152175
  O       0.554370      0.985715      1.578881
  C       1.033219      2.126449      1.249217
  C       0.971046      3.190868      2.306865
  H       0.930119      4.179799      1.857925
  H       1.878868      3.140111      2.910936
  H       0.123997      3.045698      2.972893
  H       3.251354     -1.858166      1.066537
  H       1.878292     -2.891628     -1.039170
39
Coordinates from ORCA-job reaction4-IEIP_ts_guess_scan_9-5_orca E -1288.400870504618
  Ir      0.622610     -0.719982      0.435349
  C       0.129205     -2.830539      0.327159
  C      -0.004089     -2.374426      1.686077
  C       2.196367     -2.084297      1.040071
  C       1.469155     -2.648753     -0.069623
  C       1.285145     -1.946875      2.113563
  N      -1.051301      0.130315     -0.512273
  C      -2.317642      0.381558      0.193624
  C      -3.098160      1.567032     -0.355373
  H      -3.921808      1.790324      0.321252
  H      -3.543305      1.366821     -1.330881
  H      -2.481908      2.463470     -0.427036
  C      -3.157216     -0.891126      0.193374
  H      -2.026670      0.609671      1.219824
  H      -4.057205     -0.740063      0.787865
  H      -3.466505     -1.159073     -0.817727
  H      -2.619434     -1.735521      0.621804
  C      -0.899867      0.408056     -1.753353
  C       0.425374      0.219169     -2.274555
  H      -1.709476      0.797755     -2.362727
  C       1.496724      0.194854     -1.381809
  C       2.705716     -0.103658     -2.080476
  S       0.877491     -0.099052     -3.878306
  C       2.519584     -0.281509     -3.416417
  H       1.559840      1.183348     -0.635540
  H       3.680410     -0.127454     -1.615231
  H       3.265906     -0.487654     -4.168517
  H      -0.660344     -3.238991     -0.286865
  H      -0.891661     -2.421142      2.298820
  H       1.513315     -1.516802      3.078611
  O       1.547584      2.376003      0.150743
  O       0.555415      0.985178      1.578274
  C       1.032114      2.126784      1.248148
  C       0.968515      3.191192      2.305661
  H       0.923921      4.179831      1.856390
  H       1.877582      3.143423      2.908087
  H       0.123015      3.043763      2.973138
  H       3.251511     -1.859898      1.068306
  H       1.879465     -2.892542     -1.038693
