39
Generated by autodE on: 2023-08-16. E = -1288.406137 Ha
Ir    0.60940  -0.74818   0.41480
C     0.16094  -2.86011   0.34484
C    -0.13083  -2.42015   1.68642
C     2.11633  -2.05530   1.27562
C     1.54430  -2.66548   0.11276
C     1.07031  -1.94078   2.24201
N    -1.08100   0.09628  -0.50567
C    -2.35617   0.26430   0.20747
C    -3.14372   1.49336  -0.22382
H    -3.97817   1.63482   0.46116
H    -3.57303   1.39533  -1.22181
H    -2.53579   2.39779  -0.19111
C    -3.18451  -1.00780   0.06655
H    -2.08134   0.39172   1.25574
H    -4.08931  -0.93262   0.66847
H    -3.48510  -1.16704  -0.96980
H    -2.63975  -1.88990   0.39942
C    -0.93322   0.48452  -1.71999
C     0.38051   0.32433  -2.26091
H    -1.74527   0.93101  -2.28461
C     1.39866  -0.00996  -1.36910
C     2.61924  -0.20340  -2.08535
S     0.89474   0.42855  -3.87711
C     2.48962   0.00727  -3.42667
H     1.65582   1.19801  -0.67884
H     3.56631  -0.43630  -1.62022
H     3.26159  -0.04825  -4.17921
H    -0.53414  -3.31648  -0.34457
H    -1.08394  -2.47636   2.18939
H     1.17165  -1.49099   3.21954
O     1.78068   2.29810   0.02938
O     0.61178   1.05421   1.45921
C     1.18739   2.12450   1.12480
C     1.18940   3.25801   2.10461
H     1.05839   4.20924   1.59355
H     2.15943   3.29181   2.60369
H     0.42022   3.12987   2.86051
H     3.15790  -1.82344   1.43526
H     2.07004  -2.92131  -0.79569
