! Opt PBEh-3c
%geom Constraints
{ B 0 20 2.4714285714285715 C }
{ B 24 30 1.3571428571428572 C }
    end
end
%output 
xyzfile=True 
end 
%scf 
maxiter 250 
end
%output
Print[P_Hirshfeld] = 1
end
% maxcore
4000
*xyz 1 1
Ir   0.57712257  -0.73326712   0.49355335 
C    0.01956469  -2.81148951   0.37327881 
C    0.08138607  -2.36498678   1.74310211 
C    2.18191405  -2.14861363   0.82297290 
C    1.29350815  -2.65111207  -0.20104558 
C    1.44560526  -2.00963050   2.01262610 
N   -1.04093794   0.15196745  -0.51109662 
C   -2.32042018   0.46773392   0.14539544 
C   -3.12309119   1.54296360  -0.56995426 
H   -3.95617474   1.84078042   0.06531206 
H   -3.55811641   1.19705829  -1.50894596 
H   -2.52895928   2.43624182  -0.76501130 
C   -3.13213499  -0.80863687   0.32999161 
H   -2.04053183   0.84725264   1.12961173 
H   -4.05387112  -0.58146411   0.86355608 
H   -3.40347354  -1.24813664  -0.63078795 
H   -2.59654821  -1.55482516   0.91509062 
C   -0.83999209   0.36426774  -1.75562360 
C    0.50673199   0.17066228  -2.23901475 
H   -1.63054430   0.71236797  -2.41447981 
C    1.61043718   0.47722789  -1.45287810 
C    2.81163302   0.10294088  -2.11832886 
S    0.92902361  -0.50160439  -3.75163353 
C    2.59603768  -0.42722093  -3.35313502 
H    1.53857574   1.37090926  -0.62516137 
H    3.80007528   0.27335667  -1.71689268 
H    3.33159477  -0.76018978  -4.06983107 
H   -0.86319898  -3.16967681  -0.13666604 
H   -0.71911719  -2.39821730   2.46745846 
H    1.82008070  -1.62084745   2.94868838 
O    1.36954665   2.41598570   0.24665326 
O    0.53567287   0.92235695   1.67785915 
C    0.94156697   2.10165351   1.35972738 
C    0.89740108   3.10939034   2.47215442 
H    0.85747190   4.12014601   2.07534852 
H    1.80885400   3.02089000   3.06675129 
H    0.05674952   2.93555877   3.14024458 
H    3.22992564  -1.92185978   0.69493240 
H    1.56600263  -2.87074322  -1.22308206 
*
