39
Generated by autodE on: 2023-08-13. E = -1288.399870 Ha
Ir    0.60182  -0.71310   0.43596
C     0.05067  -2.79962   0.33888
C     0.12604  -2.34426   1.70495
C     2.21405  -2.12174   0.75763
C     1.31741  -2.63980  -0.25111
C     1.48965  -1.97721   1.95468
N    -1.04628   0.17229  -0.52590
C    -2.31257   0.49802   0.14774
C    -3.12265   1.56778  -0.56646
H    -3.94885   1.87042   0.07545
H    -3.56751   1.21458  -1.49821
H    -2.53039   2.45961  -0.77366
C    -3.12110  -0.77677   0.35590
H    -2.01426   0.88434   1.12363
H    -4.03037  -0.54564   0.90868
H    -3.41402  -1.22057  -0.59649
H    -2.57257  -1.52033   0.93239
C    -0.85234   0.38118  -1.76997
C     0.49730   0.15079  -2.23760
H    -1.63293   0.74516  -2.43167
C     1.59506   0.46443  -1.44149
C     2.80263   0.04673  -2.07417
S     0.93110  -0.60337  -3.70224
C     2.59639  -0.53736  -3.28354
H     1.53167   1.35501  -0.68501
H     3.78633   0.22473  -1.66465
H     3.33528  -0.91445  -3.97433
H    -0.83611  -3.16653  -0.15773
H    -0.66572  -2.37460   2.43887
H     1.87203  -1.57647   2.88249
O     1.30034   2.47876   0.25893
O     0.53476   0.91475   1.65306
C     0.90027   2.12041   1.36232
C     0.83317   3.08364   2.51512
H     0.78996   4.10855   2.15689
H     1.73561   2.97869   3.12053
H    -0.01556   2.87942   3.16464
H     3.26061  -1.89515   0.61868
H     1.58046  -2.87313  -1.27246
