! Opt PBEh-3c
%geom Constraints
{ B 0 20 2.1714285714285713 C }
{ B 24 30 1.3 C }
    end
end
%output 
xyzfile=True 
end 
%scf 
maxiter 250 
end
%output
Print[P_Hirshfeld] = 1
end
% maxcore
4000
*xyz 1 1
Ir   0.60139310  -0.73894209   0.45638064 
C    0.12490520  -2.84609368   0.37070855 
C   -0.10926409  -2.37818315   1.71267629 
C    2.13168329  -2.07569393   1.22108897 
C    1.49470673  -2.66673572   0.07611766 
C    1.13516796  -1.92869895   2.22231756 
N   -1.06685946   0.10308526  -0.50540823 
C   -2.35013654   0.29114362   0.19058691 
C   -3.13890518   1.50017946  -0.29270059 
H   -3.97652348   1.66669788   0.38278001 
H   -3.56422915   1.36070731  -1.28742755 
H   -2.53373019   2.40699223  -0.29385875 
C   -3.17370734  -0.98772358   0.08943609 
H   -2.08531541   0.45829872   1.23572512 
H   -4.08891764  -0.88870242   0.67181951 
H   -3.45648840  -1.19170892  -0.94412597 
H   -2.63483243  -1.85375017   0.47050262 
C   -0.91159800   0.45305993  -1.72961758 
C    0.40405978   0.30416967  -2.27410525 
H   -1.72828461   0.86786583  -2.31236125 
C    1.46639195   0.09571138  -1.40324073 
C    2.66621352  -0.12751883  -2.13652967 
S    0.85891085   0.26603056  -3.91353532 
C    2.48347348  -0.05543577  -3.48649393 
H    1.65628574   1.16670412  -0.58302264 
H    3.63599997  -0.27828360  -1.68494386 
H    3.23025531  -0.15787828  -4.25922259 
H   -0.60966251  -3.27947780  -0.29220749 
H   -1.03869831  -2.42256826   2.25966030 
H    1.28621385  -1.47915026   3.19368588 
O    1.78398120   2.26267750   0.13103840 
O    0.56216336   1.03544863   1.52736153 
C    1.16224005   2.10338956   1.20615499 
C    1.14251020   3.23274708   2.19083173 
H    1.01542705   4.18425762   1.67901473 
H    2.10473866   3.27135810   2.70426199 
H    0.36193654   3.10075231   2.93433849 
H    3.18146149  -1.85088314   1.32878128 
H    1.97640342  -2.92465816  -0.85572769 
*
