39
Coordinates from ORCA-job reaction4-IEIP_ts_guess_scan_14-10_orca E -1288.399753763752
  Ir      0.620268     -0.733189      0.386521
  C       0.178557     -2.852189      0.307334
  C      -0.096551     -2.424153      1.656483
  C       2.143468     -2.043386      1.215344
  C       1.557324     -2.649158      0.056716
  C       1.110684     -1.942868      2.199095
  N      -1.082812      0.111236     -0.511649
  C      -2.349013      0.288424      0.213810
  C      -3.140925      1.512392     -0.223434
  H      -3.969051      1.661016      0.467683
  H      -3.579502      1.402841     -1.216209
  H      -2.533260      2.417433     -0.206218
  C      -3.178152     -0.985817      0.096028
  H      -2.061247      0.426611      1.257192
  H      -4.075737     -0.903911      0.707728
  H      -3.490968     -1.156345     -0.934890
  H      -2.628969     -1.863691      0.432623
  C      -0.941530      0.490327     -1.723698
  C       0.372459      0.308340     -2.244292
  H      -1.747648      0.939904     -2.293952
  C       1.374415     -0.012619     -1.319949
  C       2.604550     -0.232187     -2.022534
  S       0.908323      0.364741     -3.851299
  C       2.495530     -0.058000     -3.368429
  H       1.610768      1.159338     -0.688632
  H       3.545004     -0.451562     -1.537603
  H       3.277056     -0.136132     -4.109006
  H      -0.524484     -3.306775     -0.375151
  H      -1.042410     -2.488516      2.172004
  H       1.224011     -1.499436      3.178203
  O       1.733396      2.309926      0.020555
  O       0.612218      1.046435      1.456285
  C       1.162377      2.131400      1.116187
  C       1.148608      3.257029      2.107430
  H       1.035198      4.213568      1.602601
  H       2.106817      3.278645      2.629516
  H       0.362549      3.127218      2.845815
  H       3.186367     -1.809249      1.362603
  H       2.071683     -2.898447     -0.860070
39
Coordinates from ORCA-job reaction4-IEIP_ts_guess_scan_14-10_orca E -1288.399979175400
  Ir      0.619858     -0.734161      0.384347
  C       0.177407     -2.855408      0.309040
  C      -0.095108     -2.429010      1.659208
  C       2.143059     -2.046796      1.214483
  C       1.555671     -2.653212      0.056895
  C       1.111509     -1.947197      2.199301
  N      -1.085226      0.109464     -0.509741
  C      -2.350772      0.287863      0.216700
  C      -3.140866      1.513004     -0.220478
  H      -3.969052      1.662586      0.470345
  H      -3.579126      1.404292     -1.213505
  H      -2.532046      2.417281     -0.202845
  C      -3.181871     -0.985055      0.098812
  H      -2.062696      0.425499      1.260109
  H      -4.079273     -0.901977      0.710629
  H      -3.495161     -1.154906     -0.932087
  H      -2.634023     -1.863853      0.435126
  C      -0.940946      0.489715     -1.726480
  C       0.376265      0.310002     -2.249284
  H      -1.746518      0.940544     -2.296431
  C       1.374829     -0.016594     -1.323024
  C       2.606842     -0.234566     -2.024227
  S       0.916528      0.373770     -3.854915
  C       2.501650     -0.054147     -3.369652
  H       1.616212      1.165313     -0.691839
  H       3.546110     -0.456204     -1.537869
  H       3.285144     -0.130352     -4.108265
  H      -0.526439     -3.310582     -0.372251
  H      -1.039855     -2.494337      2.176545
  H       1.226106     -1.504402      3.178542
  O       1.736033      2.316437      0.016958
  O       0.611030      1.048228      1.455668
  C       1.162358      2.134676      1.114538
  C       1.145137      3.260635      2.105016
  H       1.031311      4.216816      1.599540
  H       2.102267      3.283757      2.628991
  H       0.357747      3.129877      2.841726
  H       3.186289     -1.813665      1.361146
  H       2.068989     -2.904143     -0.860033
39
Coordinates from ORCA-job reaction4-IEIP_ts_guess_scan_14-10_orca E -1288.400073226329
  Ir      0.619218     -0.734794      0.383547
  C       0.173402     -2.856776      0.314338
  C      -0.095987     -2.431693      1.665343
  C       2.140758     -2.050416      1.216288
  C       1.551524     -2.657094      0.060213
  C       1.110652     -1.950631      2.202458
  N      -1.085330      0.108633     -0.507823
  C      -2.350620      0.286380      0.217713
  C      -3.140154      1.511587     -0.220263
  H      -3.969751      1.660896      0.468970
  H      -3.576240      1.403075     -1.214259
  H      -2.531492      2.415923     -0.201237
  C      -3.181353     -0.986670      0.099219
  H      -2.062972      0.423804      1.261256
  H      -4.079181     -0.903975      0.710497
  H      -3.493918     -1.156504     -0.931874
  H      -2.633340     -1.865325      0.435827
  C      -0.939728      0.491751     -1.725765
  C       0.377774      0.313966     -2.252037
  H      -1.745902      0.943870     -2.293672
  C       1.373461     -0.022863     -1.326503
  C       2.606862     -0.236555     -2.027219
  S       0.920417      0.388176     -3.856634
  C       2.504674     -0.042816     -3.371080
  H       1.622896      1.169408     -0.696904
  H       3.545057     -0.463023     -1.540953
  H       3.289911     -0.113061     -4.108407
  H      -0.531855     -3.311832     -0.365542
  H      -1.039851     -2.496321      2.184348
  H       1.227212     -1.508048      3.181562
  O       1.739131      2.320312      0.012847
  O       0.611666      1.048969      1.452831
  C       1.162817      2.135627      1.111094
  C       1.144285      3.261662      2.100617
  H       1.030700      4.217649      1.594703
  H       2.100792      3.285225      2.625758
  H       0.355975      3.130532      2.836196
  H       3.184540     -1.819376      1.362184
  H       2.063316     -2.910482     -0.856900
39
Coordinates from ORCA-job reaction4-IEIP_ts_guess_scan_14-10_orca E -1288.400138701494
  Ir      0.618777     -0.736026      0.383515
  C       0.168824     -2.857610      0.321103
  C      -0.097996     -2.433630      1.672818
  C       2.137929     -2.054180      1.220121
  C       1.547144     -2.660871      0.065313
  C       1.108922     -1.953728      2.207539
  N      -1.084841      0.108111     -0.507224
  C      -2.350960      0.283314      0.217040
  C      -3.142036      1.508107     -0.219548
  H      -3.972884      1.654921      0.468705
  H      -3.576475      1.400610     -1.214343
  H      -2.534828      2.413366     -0.198121
  C      -3.180136     -0.990586      0.096610
  H      -2.064353      0.419568      1.261073
  H      -4.078616     -0.909706      0.707186
  H      -3.491481     -1.159770     -0.934949
  H      -2.631211     -1.868784      0.432874
  C      -0.938059      0.496100     -1.723941
  C       0.378704      0.320636     -2.252749
  H      -1.744621      0.950820     -2.289072
  C       1.371671     -0.029995     -1.329573
  C       2.606064     -0.238587     -2.030150
  S       0.925578      0.416985     -3.854905
  C       2.505869     -0.031048     -3.372251
  H       1.631404      1.172484     -0.703200
  H       3.542464     -0.475247     -1.545323
  H       3.291831     -0.097696     -4.109150
  H      -0.537777     -3.312252     -0.357669
  H      -1.041436     -2.496680      2.192767
  H       1.227348     -1.511047      3.186381
  O       1.743668      2.322616      0.008437
  O       0.614801      1.050596      1.449072
  C       1.165551      2.136402      1.106916
  C       1.146632      3.263772      2.094477
  H       1.033797      4.219203      1.587360
  H       2.102677      3.287687      2.620466
  H       0.357584      3.133568      2.829436
  H       3.182275     -1.825520      1.365591
  H       2.057565     -2.916711     -0.851894
39
Coordinates from ORCA-job reaction4-IEIP_ts_guess_scan_14-10_orca E -1288.400191195920
  Ir      0.618135     -0.739800      0.384121
  C       0.161900     -2.859284      0.329669
  C      -0.102690     -2.435631      1.681882
  C       2.133218     -2.060282      1.226283
  C       1.540931     -2.666891      0.072678
  C       1.104971     -1.957743      2.214788
  N      -1.083585      0.107465     -0.507049
  C      -2.350912      0.279372      0.216116
  C      -3.144274      1.503640     -0.217889
  H      -3.975937      1.646987      0.470048
  H      -3.577804      1.397686     -1.213245
  H      -2.538941      2.410107     -0.193768
  C      -3.178257     -0.995506      0.093073
  H      -2.065478      0.413974      1.260765
  H      -4.077506     -0.916817      0.702782
  H      -3.488116     -1.163669     -0.939110
  H      -2.628379     -1.873286      0.428746
  C      -0.936016      0.501528     -1.721034
  C       0.378765      0.326008     -2.252125
  H      -1.742935      0.959146     -2.283319
  C       1.369173     -0.040643     -1.332597
  C       2.605131     -0.240223     -2.032679
  S       0.928311      0.439577     -3.852444
  C       2.509139     -0.006308     -3.371052
  H       1.640447      1.172942     -0.713011
  H       3.539799     -0.486804     -1.549595
  H       3.297749     -0.058946     -4.106295
  H      -0.546180     -3.312987     -0.348234
  H      -1.046257     -2.495474      2.201945
  H       1.225351     -1.514405      3.193084
  O       1.747499      2.322601      0.000193
  O       0.621179      1.051422      1.443381
  C       1.169941      2.136007      1.099587
  C       1.151952      3.266237      2.083972
  H       1.038701      4.220467      1.574748
  H       2.108445      3.291453      2.609103
  H       0.363575      3.137758      2.820004
  H       3.178253     -1.834750      1.371623
  H       2.050071     -2.925739     -0.844405
39
Coordinates from ORCA-job reaction4-IEIP_ts_guess_scan_14-10_orca E -1288.400222983403
  Ir      0.617679     -0.742306      0.384371
  C       0.159901     -2.859892      0.331938
  C      -0.105915     -2.436049      1.683968
  C       2.130701     -2.061608      1.230269
  C       1.539652     -2.668562      0.076325
  C       1.101419     -1.958357      2.218098
  N      -1.082967      0.106724     -0.507476
  C      -2.350594      0.276859      0.215978
  C      -3.145211      1.500791     -0.216445
  H      -3.976599      1.642400      0.472148
  H      -3.579283      1.395577     -1.211682
  H      -2.540784      2.407853     -0.191552
  C      -3.176927     -0.998533      0.091554
  H      -2.065370      0.410694      1.260808
  H      -4.076483     -0.920862      0.700907
  H      -3.486166     -1.166109     -0.940918
  H      -2.626675     -1.876225      0.426808
  C      -0.935514      0.504773     -1.719179
  C       0.378654      0.329808     -2.249967
  H      -1.742006      0.965306     -2.279810
  C       1.368462     -0.044112     -1.332851
  C       2.604588     -0.240278     -2.033102
  S       0.931128      0.459722     -3.848132
  C       2.508914      0.000778     -3.370525
  H       1.644585      1.172635     -0.718368
  H       3.538085     -0.494492     -1.551777
  H       3.297315     -0.050218     -4.106122
  H      -0.547669     -3.313466     -0.346605
  H      -1.050426     -2.494526      2.202460
  H       1.221139     -1.514427      3.196184
  O       1.748939      2.321855     -0.004055
  O       0.624685      1.051460      1.439582
  C       1.172113      2.135677      1.095354
  C       1.154802      3.267237      2.078689
  H       1.041192      4.220945      1.568624
  H       2.111670      3.292961      2.603119
  H       0.367039      3.139632      2.815559
  H       3.175683     -1.836494      1.376714
  H       2.049615     -2.927981     -0.840146
39
Coordinates from ORCA-job reaction4-IEIP_ts_guess_scan_14-10_orca E -1288.400239723608
  Ir      0.617416     -0.744695      0.384498
  C       0.160012     -2.861076      0.331749
  C      -0.108362     -2.436441      1.683226
  C       2.129157     -2.061835      1.233435
  C       1.540455     -2.669631      0.078684
  C       1.098020     -1.958187      2.219669
  N      -1.083125      0.106041     -0.507553
  C      -2.350680      0.275382      0.216664
  C      -3.145516      1.499698     -0.214132
  H      -3.976271      1.640456      0.475416
  H      -3.580563      1.395555     -1.209067
  H      -2.541177      2.406808     -0.188743
  C      -3.177032     -0.999831      0.090713
  H      -2.065211      0.408201      1.261544
  H      -4.076703     -0.922567      0.699957
  H      -3.486106     -1.166261     -0.941988
  H      -2.627155     -1.878049      0.425100
  C      -0.935735      0.506525     -1.718036
  C       0.378557      0.330980     -2.247991
  H      -1.741443      0.968937     -2.278223
  C       1.368591     -0.045089     -1.331977
  C       2.604620     -0.239708     -2.032567
  S       0.931758      0.466061     -3.845524
  C       2.509045      0.004953     -3.369550
  H       1.645952      1.171881     -0.722314
  H       3.537828     -0.496511     -1.552086
  H       3.297420     -0.044116     -4.105307
  H      -0.546185     -3.315207     -0.347857
  H      -1.054032     -2.494431      2.199658
  H       1.215942     -1.513716      3.197704
  O       1.748973      2.321215     -0.007993
  O       0.627516      1.051012      1.436862
  C       1.173779      2.135460      1.091837
  C       1.156917      3.267570      2.074859
  H       1.042154      4.220933      1.564421
  H       2.114396      3.293994      2.598120
  H       0.370159      3.140025      2.812822
  H       3.173795     -1.836127      1.381514
  H       2.052204     -2.929020     -0.836805
39
Coordinates from ORCA-job reaction4-IEIP_ts_guess_scan_14-10_orca E -1288.400253772739
  Ir      0.617173     -0.747313      0.384441
  C       0.161105     -2.863015      0.331011
  C      -0.111232     -2.437457      1.681664
  C       2.127286     -2.061676      1.237885
  C       1.542405     -2.670989      0.081994
  C       1.093190     -1.958037      2.221464
  N      -1.083546      0.105263     -0.507062
  C      -2.350814      0.273891      0.217967
  C      -3.145424      1.499055     -0.210760
  H      -3.975649      1.638962      0.479629
  H      -3.581217      1.396571     -1.205544
  H      -2.540897      2.406011     -0.184319
  C      -3.177473     -1.000871      0.089805
  H      -2.064898      0.405121      1.262909
  H      -4.077210     -0.924189      0.699045
  H      -3.486505     -1.165420     -0.943199
  H      -2.628152     -1.879990      0.422690
  C      -0.936150      0.508330     -1.716645
  C       0.378532      0.332325     -2.246159
  H      -1.740975      0.972794     -2.276350
  C       1.368746     -0.045629     -1.331012
  C       2.604521     -0.239151     -2.032423
  S       0.931760      0.470995     -3.843357
  C       2.509007      0.009215     -3.368872
  H       1.647442      1.172108     -0.727732
  H       3.537681     -0.497705     -1.552794
  H       3.297362     -0.037718     -4.104786
  H      -0.542755     -3.318499     -0.350102
  H      -1.058461     -2.495474      2.195240
  H       1.208090     -1.513054      3.199603
  O       1.748923      2.321509     -0.013298
  O       0.630766      1.050506      1.433429
  C       1.175621      2.135480      1.087278
  C       1.159102      3.267570      2.070443
  H       1.042686      4.220759      1.560043
  H       2.117342      3.294791      2.592259
  H       0.373583      3.139432      2.809610
  H       3.171330     -1.834896      1.388598
  H       2.057074     -2.930413     -0.831852
39
Coordinates from ORCA-job reaction4-IEIP_ts_guess_scan_14-10_orca E -1288.400263490876
  Ir      0.617169     -0.748900      0.384270
  C       0.163042     -2.864821      0.330189
  C      -0.113404     -2.438786      1.680067
  C       2.125836     -2.060955      1.242423
  C       1.545046     -2.671869      0.085415
  C       1.088641     -1.957961      2.223184
  N      -1.084016      0.104842     -0.506297
  C      -2.351100      0.272777      0.219108
  C      -3.145252      1.498967     -0.207499
  H      -3.975405      1.637971      0.483175
  H      -3.581078      1.398414     -1.202461
  H      -2.540438      2.405681     -0.179405
  C      -3.178151     -1.001471      0.088477
  H      -2.064920      0.402108      1.264209
  H      -4.077867     -0.925683      0.697877
  H      -3.487278     -1.163775     -0.944847
  H      -2.629202     -1.881542      0.419439
  C      -0.936623      0.509646     -1.715458
  C       0.378325      0.333581     -2.245275
  H      -1.740966      0.975451     -2.274698
  C       1.368631     -0.045673     -1.330600
  C       2.604045     -0.239057     -2.033082
  S       0.930905      0.473742     -3.842444
  C       2.508316      0.011424     -3.369114
  H       1.648644      1.173653     -0.732693
  H       3.537366     -0.498326     -1.554124
  H       3.296491     -0.034508     -4.105277
  H      -0.538233     -3.322039     -0.352406
  H      -1.062083     -2.497431      2.190902
  H       1.200247     -1.512716      3.201576
  O       1.749113      2.322763     -0.017649
  O       0.633426      1.050456      1.430636
  C       1.177268      2.135858      1.083651
  C       1.161065      3.267448      2.067344
  H       1.043394      4.220766      1.557448
  H       2.119899      3.295061      2.588051
  H       0.376480      3.138442      2.807335
  H       3.169221     -1.833023      1.395966
  H       2.062815     -2.931327     -0.826674
39
Coordinates from ORCA-job reaction4-IEIP_ts_guess_scan_14-10_orca E -1288.400272536062
  Ir      0.617341     -0.749766      0.383961
  C       0.166532     -2.866630      0.328772
  C      -0.115713     -2.440633      1.677672
  C       2.124278     -2.059043      1.248587
  C       1.549333     -2.671959      0.089956
  C       1.082786     -1.957715      2.225420
  N      -1.084572      0.104639     -0.505267
  C      -2.351548      0.271587      0.220302
  C      -3.144945      1.499262     -0.203375
  H      -3.975355      1.636956      0.487254
  H      -3.580283      1.401534     -1.198824
  H      -2.539664      2.405575     -0.172601
  C      -3.179121     -1.001978      0.086221
  H      -2.065239      0.398108      1.265716
  H      -4.078608     -0.927781      0.696159
  H      -3.488678     -1.160945     -0.947493
  H      -2.630312     -1.883304      0.414092
  C      -0.937425      0.510637     -1.714241
  C       0.377589      0.334837     -2.245059
  H      -1.741661      0.977321     -2.272899
  C       1.368065     -0.045324     -1.330733
  C       2.602903     -0.239466     -2.034690
  S       0.928765      0.475019     -3.842463
  C       2.506554      0.011935     -3.370375
  H       1.649490      1.176675     -0.738471
  H       3.536565     -0.498856     -1.556421
  H       3.294274     -0.033952     -4.107022
  H      -0.530982     -3.326366     -0.355945
  H      -1.066312     -2.500670      2.184777
  H       1.189631     -1.512366      3.204289
  O       1.749577      2.324888     -0.021933
  O       0.636155      1.050887      1.427756
  C       1.179229      2.136588      1.080167
  C       1.163847      3.267223      2.064877
  H       1.045308      4.221024      1.556059
  H       2.123291      3.294631      2.584484
  H       0.380141      3.137191      2.805602
  H       3.166689     -1.829417      1.406163
  H       2.071445     -2.931152     -0.819735
39
Coordinates from ORCA-job reaction4-IEIP_ts_guess_scan_14-10_orca E -1288.400279081574
  Ir      0.617621     -0.749577      0.383670
  C       0.171181     -2.867716      0.326816
  C      -0.117586     -2.442559      1.674758
  C       2.123045     -2.055902      1.255230
  C       1.554712     -2.670613      0.094601
  C       1.076880     -1.957227      2.227783
  N      -1.085145      0.104527     -0.504410
  C      -2.352128      0.270410      0.221189
  C      -3.144436      1.499909     -0.199127
  H      -3.975263      1.636181      0.491271
  H      -3.579050      1.405561     -1.195213
  H      -2.538424      2.405615     -0.165162
  C      -3.180437     -1.002295      0.083202
  H      -2.065904      0.393593      1.267028
  H      -4.079409     -0.930070      0.694125
  H      -3.490882     -1.157257     -0.950863
  H      -2.631564     -1.885050      0.407152
  C      -0.938634      0.510613     -1.713482
  C       0.376161      0.335271     -2.245629
  H      -1.743281      0.977242     -2.271633
  C       1.366988     -0.044857     -1.331503
  C       2.601208     -0.240288     -2.036789
  S       0.925630      0.473957     -3.843488
  C       2.503938      0.010318     -3.372373
  H       1.649097      1.180077     -0.743458
  H       3.535283     -0.499165     -1.559010
  H       3.291021     -0.036456     -4.109637
  H      -0.522053     -3.330111     -0.360426
  H      -1.070288     -2.504514      2.177689
  H       1.178311     -1.511974      3.207266
  O       1.750108      2.326905     -0.024835
  O       0.638107      1.051780      1.425740
  C       1.181068      2.137410      1.077961
  C       1.167300      3.267070      2.063774
  H       1.048848      4.221559      1.556221
  H       2.127244      3.293413      2.582529
  H       0.384194      3.136548      2.805042
  H       3.164306     -1.824228      1.417323
  H       2.081599     -2.928912     -0.812592
39
Coordinates from ORCA-job reaction4-IEIP_ts_guess_scan_14-10_orca E -1288.400285211524
  Ir      0.617923     -0.748511      0.383431
  C       0.177966     -2.868157      0.323735
  C      -0.119563     -2.444941      1.670537
  C       2.121786     -2.050762      1.263868
  C       1.562372     -2.667274      0.100286
  C       1.069540     -1.956378      2.230836
  N      -1.085915      0.104100     -0.503725
  C      -2.352931      0.268734      0.222021
  C      -3.143361      1.501007     -0.193555
  H      -3.974581      1.635584      0.496688
  H      -3.577265      1.411516     -1.190396
  H      -2.535965      2.405604     -0.155356
  C      -3.182592     -1.002555      0.078746
  H      -2.066917      0.387219      1.268453
  H      -4.080556     -0.932960      0.691438
  H      -3.494754     -1.151811     -0.955654
  H      -2.633620     -1.887379      0.396937
  C      -0.940691      0.509133     -1.713214
  C       0.373611      0.334421     -2.246977
  H      -1.746330      0.974690     -2.270902
  C       1.365119     -0.044599     -1.333021
  C       2.598694     -0.241461     -2.039472
  S       0.921114      0.470463     -3.845510
  C       2.500149      0.006868     -3.375193
  H       1.646778      1.183771     -0.748566
  H       3.533283     -0.499194     -1.562052
  H       3.286414     -0.041330     -4.113234
  H      -0.509500     -3.333696     -0.367137
  H      -1.075103     -2.509621      2.167739
  H       1.163678     -1.511445      3.211184
  O       1.750591      2.328612     -0.027179
  O       0.639520      1.053261      1.424228
  C       1.183110      2.138352      1.076442
  C       1.172441      3.267085      2.063382
  H       1.055222      4.222459      1.557228
  H       2.132927      3.291150      2.581267
  H       0.389833      3.136961      2.805257
  H       3.161427     -1.816148      1.431999
  H       2.095515     -2.923577     -0.803816
39
Coordinates from ORCA-job reaction4-IEIP_ts_guess_scan_14-10_orca E -1288.400290922074
  Ir      0.618090     -0.746952      0.383398
  C       0.186263     -2.867852      0.319755
  C      -0.121571     -2.447586      1.665326
  C       2.120521     -2.044095      1.273906
  C       1.571660     -2.662114      0.106561
  C       1.061304     -1.955290      2.234414
  N      -1.086927      0.102885     -0.503380
  C      -2.353900      0.266359      0.222838
  C      -3.141451      1.502444     -0.186723
  H      -3.972741      1.635402      0.503747
  H      -3.575086      1.419198     -1.184223
  H      -2.531811      2.405288     -0.143668
  C      -3.185787     -1.002768      0.073112
  H      -2.068106      0.378971      1.269947
  H      -4.082271     -0.936051      0.688272
  H      -3.500485     -1.144812     -0.961545
  H      -2.637015     -1.890367      0.383987
  C      -0.943623      0.505781     -1.713624
  C       0.370062      0.331743     -2.248835
  H      -1.750722      0.969247     -2.271024
  C       1.362586     -0.045136     -1.335084
  C       2.595745     -0.242532     -2.042151
  S       0.915975      0.465225     -3.848077
  C       2.495840      0.002885     -3.378201
  H       1.642105      1.186523     -0.753208
  H       3.530880     -0.498644     -1.564919
  H       3.281354     -0.046374     -4.116973
  H      -0.494424     -3.336533     -0.375664
  H      -1.080516     -2.515404      2.155546
  H       1.146881     -1.510909      3.215780
  O       1.750734      2.329269     -0.029212
  O       0.640126      1.055165      1.423358
  C       1.185127      2.139218      1.075434
  C       1.179083      3.267423      2.063094
  H       1.064286      4.223615      1.557981
  H       2.140136      3.288091      2.580093
  H       0.396873      3.139015      2.805715
  H       3.158166     -1.805857      1.449128
  H       2.112007     -2.915281     -0.794141
39
Coordinates from ORCA-job reaction4-IEIP_ts_guess_scan_14-10_orca E -1288.400296086652
  Ir      0.617998     -0.745707      0.383661
  C       0.193730     -2.867102      0.316077
  C      -0.123348     -2.449825      1.660586
  C       2.119370     -2.037919      1.283074
  C       1.580060     -2.656831      0.112122
  C       1.053995     -1.954293      2.237772
  N      -1.088025      0.100804     -0.503334
  C      -2.354828      0.263532      0.223649
  C      -3.138971      1.503760     -0.179853
  H      -3.969856      1.635660      0.511329
  H      -3.573001      1.426873     -1.177693
  H      -2.526592      2.404504     -0.132442
  C      -3.189488     -1.003002      0.067581
  H      -2.069144      0.370339      1.271344
  H      -4.084485     -0.938580      0.685147
  H      -3.506790     -1.137874     -0.967243
  H      -2.641493     -1.893597      0.371343
  C      -0.946734      0.501269     -1.714485
  C       0.366517      0.327779     -2.250443
  H      -1.755282      0.962254     -2.271887
  C       1.360148     -0.046778     -1.337011
  C       2.593347     -0.242872     -2.043956
  S       0.911903      0.460667     -3.850120
  C       2.492452      0.000762     -3.380308
  H       1.636271      1.187097     -0.756543
  H       3.528936     -0.497443     -1.566810
  H       3.277620     -0.048145     -4.119479
  H      -0.480897     -3.338063     -0.383677
  H      -1.085465     -2.520183      2.144237
  H       1.131944     -1.510572      3.220051
  O       1.750447      2.328531     -0.031334
  O       0.640005      1.056986      1.422960
  C       1.186734      2.139784      1.074430
  C       1.185669      3.268093      2.062053
  H       1.073785      4.224702      1.557138
  H       2.147192      3.285185      2.578318
  H       0.403719      3.142411      2.805442
  H       3.155149     -1.796357      1.464703
  H       2.126776     -2.906660     -0.785659
39
Coordinates from ORCA-job reaction4-IEIP_ts_guess_scan_14-10_orca E -1288.400299660369
  Ir      0.617777     -0.745464      0.384028
  C       0.197189     -2.866658      0.314411
  C      -0.124389     -2.450760      1.658378
  C       2.118697     -2.035061      1.287860
  C       1.584078     -2.654238      0.115042
  C       1.050305     -1.953752      2.239616
  N      -1.088753      0.098886     -0.503325
  C      -2.355359      0.261455      0.224270
  C      -3.137097      1.504387     -0.175632
  H      -3.967414      1.636092      0.516299
  H      -3.571776      1.431338     -1.173478
  H      -2.522751      2.403650     -0.125960
  C      -3.192046     -1.003221      0.064428
  H      -2.069632      0.364868      1.272251
  H      -4.086339     -0.939651      0.683120
  H      -3.510665     -1.133937     -0.970520
  H      -2.645085     -1.895792      0.364353
  C      -0.948578      0.497967     -1.715100
  C       0.364647      0.324755     -2.250985
  H      -1.757850      0.957369     -2.272749
  C       1.358982     -0.048579     -1.337880
  C       2.592539     -0.242301     -2.044367
  S       0.910464      0.459288     -3.850672
  C       2.491318      0.001680     -3.380775
  H       1.632405      1.185904     -0.757990
  H       3.528387     -0.496067     -1.567327
  H       3.276622     -0.045697     -4.119911
  H      -0.474529     -3.338390     -0.387610
  H      -1.088176     -2.521996      2.138600
  H       1.124628     -1.510485      3.222366
  O       1.750038      2.327298     -0.033269
  O       0.639718      1.057933      1.422661
  C       1.187491      2.139942      1.073252
  C       1.189319      3.268663      2.060396
  H       1.079340      4.225239      1.555030
  H       2.151024      3.283667      2.576386
  H       0.407405      3.145112      2.804192
  H       3.153547     -1.791918      1.472673
  H       2.133892     -2.902336     -0.781323
39
Coordinates from ORCA-job reaction4-IEIP_ts_guess_scan_14-10_orca E -1288.400301825889
  Ir      0.617669     -0.745770      0.384248
  C       0.197457     -2.866717      0.314419
  C      -0.124817     -2.450728      1.658235
  C       2.118452     -2.034922      1.288950
  C       1.584543     -2.654164      0.115844
  C       1.049517     -1.953577      2.240115
  N      -1.088981      0.097977     -0.503195
  C      -2.355500      0.260587      0.224590
  C      -3.136360      1.504431     -0.174259
  H      -3.966383      1.636291      0.518010
  H      -3.571358      1.432540     -1.172048
  H      -2.521284      2.403159     -0.124023
  C      -3.192922     -1.003409      0.063544
  H      -2.069714      0.363001      1.272638
  H      -4.087240     -0.939819      0.682214
  H      -3.511591     -1.133008     -0.971526
  H      -2.646619     -1.896659      0.362699
  C      -0.949036      0.496789     -1.715190
  C       0.364318      0.323710     -2.250823
  H      -1.758414      0.955711     -2.273060
  C       1.358872     -0.049533     -1.337923
  C       2.592700     -0.241582     -2.044195
  S       0.910583      0.460114     -3.850357
  C       2.491488      0.003573     -3.380485
  H       1.631300      1.184931     -0.758461
  H       3.528661     -0.495201     -1.567313
  H       3.277041     -0.042526     -4.119443
  H      -0.473859     -3.338409     -0.388011
  H      -1.088961     -2.521763      2.137785
  H       1.123381     -1.510487      3.222975
  O       1.749903      2.326723     -0.034527
  O       0.639745      1.058137      1.422279
  C       1.187724      2.139950      1.072269
  C       1.190181      3.268889      2.059130
  H       1.080887      4.225358      1.553413
  H       2.151825      3.283291      2.575251
  H       0.408119      3.146120      2.802895
  H       3.153175     -1.791650      1.474309
  H       2.134869     -2.902169     -0.780231
