39
Coordinates from ORCA-job reaction4-IEIP_ts_guess_scan_8-4_orca E -1288.400268776367
  Ir      0.620804     -0.707682      0.425111
  C       0.095708     -2.807955      0.325397
  C       0.077135     -2.351008      1.690047
  C       2.222141     -2.095518      0.872973
  C       1.397804     -2.636659     -0.182750
  C       1.411580     -1.952692      2.019060
  N      -1.046761      0.153517     -0.524363
  C      -2.311296      0.438196      0.171794
  C      -3.100324      1.582750     -0.445116
  H      -3.922026      1.843915      0.220334
  H      -3.549421      1.319895     -1.403938
  H      -2.489063      2.476183     -0.574500
  C      -3.140854     -0.837897      0.257053
  H      -2.014043      0.728339      1.180461
  H      -4.044051     -0.650634      0.835967
  H      -3.444306     -1.179585     -0.733361
  H      -2.599229     -1.644247      0.749373
  C      -0.883207      0.390433     -1.765009
  C       0.451936      0.178815     -2.250382
  H      -1.679857      0.763485     -2.401640
  C       1.527245      0.311251     -1.373453
  C       2.739515     -0.054807     -2.032495
  S       0.904699     -0.359317     -3.796001
  C       2.553647     -0.433342     -3.324845
  H       1.512055      1.251099     -0.623924
  H       3.715948      0.014999     -1.575535
  H       3.301650     -0.729265     -4.044757
  H      -0.749764     -3.195166     -0.224870
  H      -0.759739     -2.388966      2.371279
  H       1.725749     -1.536533      2.965695
  O       1.392133      2.439301      0.185786
  O       0.544675      0.953514      1.612418
  C       0.952132      2.131546      1.295137
  C       0.891564      3.145027      2.402960
  H       0.854842      4.154134      2.001673
  H       1.795284      3.060351      3.009590
  H       0.042280      2.972382      3.060371
  H       3.276008     -1.871076      0.808152
  H       1.726775     -2.877593     -1.182951
39
Coordinates from ORCA-job reaction4-IEIP_ts_guess_scan_8-4_orca E -1288.400168149226
  Ir      0.617071     -0.699808      0.420471
  C       0.097852     -2.803928      0.327689
  C       0.078815     -2.345515      1.691736
  C       2.221648     -2.083666      0.873103
  C       1.399068     -2.629891     -0.181228
  C       1.410782     -1.940937      2.018679
  N      -1.057318      0.151875     -0.528585
  C      -2.321942      0.435573      0.167944
  C      -3.115904      1.573800     -0.454347
  H      -3.938231      1.835047      0.210270
  H      -3.564485      1.304234     -1.411559
  H      -2.508405      2.469088     -0.588721
  C      -3.146560     -0.843133      0.260730
  H      -2.024784      0.732111      1.174774
  H      -4.049751     -0.656339      0.839791
  H      -3.449949     -1.191008     -0.727557
  H      -2.601289     -1.644909      0.756464
  C      -0.893653      0.382543     -1.775241
  C       0.445404      0.174534     -2.263063
  H      -1.692096      0.749267     -2.413275
  C       1.519067      0.312423     -1.384102
  C       2.734280     -0.050599     -2.039930
  S       0.903031     -0.367107     -3.805799
  C       2.551877     -0.434362     -3.331233
  H       1.502355      1.273503     -0.652192
  H       3.709877      0.026420     -1.582166
  H       3.302317     -0.729437     -4.048880
  H      -0.746511     -3.195311     -0.221382
  H      -0.757239     -2.385606      2.373770
  H       1.723810     -1.522072      2.964492
  O       1.506040      2.411538      0.234769
  O       0.530126      0.963136      1.611729
  C       0.991650      2.125934      1.318174
  C       0.905590      3.144692      2.419138
  H       0.927034      4.153170      2.015080
  H       1.770600      3.030116      3.075262
  H       0.015455      3.004168      3.028284
  H       3.275057     -1.857259      0.808317
  H       1.728679     -2.873092     -1.180664
39
Coordinates from ORCA-job reaction4-IEIP_ts_guess_scan_8-4_orca E -1288.399941940650
  Ir      0.625715     -0.707656      0.422605
  C       0.092881     -2.812025      0.327582
  C       0.077887     -2.360980      1.694047
  C       2.219783     -2.105664      0.874354
  C       1.394620     -2.643807     -0.181781
  C       1.409504     -1.962237      2.020040
  N      -1.048831      0.157125     -0.516795
  C      -2.312970      0.439722      0.180874
  C      -3.101841      1.585678     -0.433776
  H      -3.925226      1.843559      0.230803
  H      -3.548489      1.325709     -1.394582
  H      -2.491624      2.480503     -0.558827
  C      -3.142233     -0.836717      0.261262
  H      -2.016438      0.726645      1.190666
  H      -4.045570     -0.651809      0.840685
  H      -3.445508     -1.174820     -0.730464
  H      -2.600490     -1.644712      0.750665
  C      -0.877369      0.401348     -1.769126
  C       0.466909      0.191485     -2.265091
  H      -1.673400      0.778420     -2.404057
  C       1.540798      0.297783     -1.379175
  C       2.753351     -0.074932     -2.035594
  S       0.923410     -0.333159     -3.813522
  C       2.569843     -0.436267     -3.333013
  H       1.552157      1.282280     -0.657561
  H       3.728577     -0.017326     -1.573854
  H       3.318515     -0.732268     -4.051998
  H      -0.753836     -3.197289     -0.222278
  H      -0.757224     -2.400385      2.377104
  H       1.725003     -1.548826      2.967414
  O       1.317909      2.440486      0.170403
  O       0.542521      0.953860      1.626117
  C       0.921609      2.135313      1.298198
  C       0.881914      3.154660      2.400547
  H       0.815971      4.160758      1.995214
  H       1.806307      3.087529      2.977398
  H       0.057481      2.972161      3.086045
  H       3.274956     -1.887371      0.811742
  H       1.722798     -2.887585     -1.181533
39
Coordinates from ORCA-job reaction4-IEIP_ts_guess_scan_8-4_orca E -1288.400526799820
  Ir      0.618946     -0.707987      0.424866
  C       0.087898     -2.809961      0.336946
  C       0.072356     -2.351786      1.700835
  C       2.215381     -2.099933      0.879727
  C       1.389768     -2.643065     -0.173554
  C       1.405372     -1.952109      2.025548
  N      -1.050686      0.151677     -0.522123
  C      -2.316223      0.432253      0.172440
  C      -3.107125      1.575131     -0.445163
  H      -3.931725      1.832647      0.218136
  H      -3.552313      1.312071     -1.405772
  H      -2.498554      2.470825     -0.571517
  C      -3.142390     -0.846229      0.254681
  H      -2.021130      0.721833      1.181874
  H      -4.046815     -0.662291      0.832768
  H      -3.443671     -1.187212     -0.736621
  H      -2.599102     -1.651764      0.746462
  C      -0.884032      0.394328     -1.766981
  C       0.455048      0.189214     -2.259127
  H      -1.681640      0.769105     -2.401190
  C       1.529380      0.302645     -1.376364
  C       2.743343     -0.057379     -2.036739
  S       0.911082     -0.329166     -3.809733
  C       2.560098     -0.412419     -3.336081
  H       1.524002      1.259200     -0.632965
  H       3.718678      0.003952     -1.576116
  H       3.309363     -0.697743     -4.058939
  H      -0.758848     -3.197467     -0.211168
  H      -0.763260     -2.387266      2.383597
  H       1.720950     -1.533759      2.970733
  O       1.411010      2.441559      0.186240
  O       0.545637      0.959239      1.609178
  C       0.963003      2.133771      1.294113
  C       0.902708      3.148775      2.399709
  H       0.873359      4.157695      1.997313
  H       1.802865      3.059663      3.010907
  H       0.049044      2.980901      3.052537
  H       3.270129     -1.879908      0.814989
  H       1.717465     -2.889852     -1.172706
39
Coordinates from ORCA-job reaction4-IEIP_ts_guess_scan_8-4_orca E -1288.400564599376
  Ir      0.619374     -0.708135      0.424873
  C       0.089527     -2.810566      0.338688
  C       0.072435     -2.352232      1.702318
  C       2.216002     -2.099036      0.882857
  C       1.391820     -2.643298     -0.170799
  C       1.404590     -1.951133      2.027695
  N      -1.050626      0.150447     -0.523570
  C      -2.315952      0.431918      0.171434
  C      -3.107269      1.574786     -0.445736
  H      -3.931146      1.832677      0.218296
  H      -3.553562      1.311526     -1.405755
  H      -2.498687      2.470352     -0.572978
  C      -3.142966     -0.845965      0.255374
  H      -2.020078      0.722037      1.180570
  H      -4.046973     -0.660885      0.833768
  H      -3.444993     -1.187651     -0.735457
  H      -2.600022     -1.651360      0.747645
  C      -0.884187      0.393539     -1.768545
  C       0.454392      0.189446     -2.262043
  H      -1.682158      0.768635     -2.402049
  C       1.528463      0.299610     -1.378652
  C       2.742300     -0.058237     -2.040154
  S       0.910842     -0.318477     -3.815783
  C       2.558738     -0.411102     -3.340106
  H       1.525414      1.261967     -0.641106
  H       3.717539      0.000295     -1.578998
  H       3.307694     -0.696241     -4.063317
  H      -0.756404     -3.198879     -0.210093
  H      -0.763806     -2.387759      2.384293
  H       1.719014     -1.531992      2.972925
  O       1.419260      2.435594      0.191461
  O       0.541742      0.959444      1.609777
  C       0.962363      2.132315      1.296842
  C       0.902089      3.148686      2.401450
  H       0.879020      4.157424      1.998202
  H       1.799262      3.056025      3.016553
  H       0.044947      2.985182      3.050843
  H       3.270795     -1.878880      0.819406
  H       1.720579     -2.890887     -1.169390
39
Coordinates from ORCA-job reaction4-IEIP_ts_guess_scan_8-4_orca E -1288.400589236834
  Ir      0.619618     -0.710972      0.426475
  C       0.087702     -2.812911      0.343607
  C       0.069918     -2.353766      1.706740
  C       2.214335     -2.102829      0.888395
  C       1.390642     -2.647542     -0.165241
  C       1.401791     -1.952906      2.032278
  N      -1.049322      0.148811     -0.523994
  C      -2.314690      0.430449      0.171251
  C      -3.105828      1.574482     -0.444044
  H      -3.929228      1.831794      0.220781
  H      -3.552827      1.312706     -1.404130
  H      -2.497008      2.470028     -0.570393
  C      -3.142874     -0.846764      0.254443
  H      -2.018507      0.719429      1.180666
  H      -4.046699     -0.661195      0.832962
  H      -3.445217     -1.187524     -0.736609
  H      -2.600702     -1.652943      0.746229
  C      -0.882804      0.394088     -1.768813
  C       0.454939      0.190918     -2.264248
  H      -1.681183      0.770285     -2.401165
  C       1.528485      0.293058     -1.379232
  C       2.742673     -0.058791     -2.043250
  S       0.911495     -0.306381     -3.821135
  C       2.559949     -0.397449     -3.347184
  H       1.527574      1.259091     -0.644022
  H       3.717687     -0.004151     -1.581160
  H       3.309323     -0.674035     -4.073259
  H      -0.758086     -3.201008     -0.205557
  H      -0.766963     -2.387537      2.387990
  H       1.715822     -1.532792      2.977218
  O       1.419665      2.432270      0.188951
  O       0.542593      0.958968      1.609345
  C       0.964749      2.130335      1.295757
  C       0.901933      3.150091      2.397244
  H       0.877332      4.157633      1.991120
  H       1.798935      3.060704      3.013072
  H       0.044728      2.986955      3.046687
  H       3.269524     -1.884306      0.826124
  H       1.719897     -2.897103     -1.163160
39
Coordinates from ORCA-job reaction4-IEIP_ts_guess_scan_8-4_orca E -1288.400614700584
  Ir      0.618434     -0.715735      0.430161
  C       0.083228     -2.816477      0.354342
  C       0.063195     -2.354677      1.716197
  C       2.209776     -2.108289      0.901092
  C       1.387682     -2.654695     -0.152645
  C       1.394430     -1.953870      2.042653
  N      -1.047567      0.145000     -0.525058
  C      -2.313680      0.424707      0.169989
  C      -3.105094      1.570481     -0.441748
  H      -3.928555      1.825223      0.223964
  H      -3.552090      1.311716     -1.402648
  H      -2.496702      2.466751     -0.565124
  C      -3.142373     -0.852444      0.249546
  H      -2.018203      0.710972      1.180408
  H      -4.046687     -0.667735      0.827553
  H      -3.443836     -1.190854     -0.742580
  H      -2.601063     -1.659925      0.740112
  C      -0.880994      0.396359     -1.768667
  C       0.455205      0.197386     -2.267523
  H      -1.680293      0.775461     -2.398182
  C       1.527595      0.281557     -1.379129
  C       2.742478     -0.058261     -2.048198
  S       0.913557     -0.267192     -3.833468
  C       2.560991     -0.370909     -3.358930
  H       1.529784      1.249880     -0.642935
  H       3.716805     -0.015530     -1.583442
  H       3.310720     -0.634647     -4.089391
  H      -0.761877     -3.204676     -0.195827
  H      -0.775382     -2.384591      2.395490
  H       1.707111     -1.531060      2.986859
  O       1.419657      2.429629      0.180412
  O       0.543987      0.960113      1.606134
  C       0.965581      2.129811      1.288814
  C       0.909724      3.152463      2.388158
  H       0.884811      4.159108      1.979918
  H       1.809520      3.062965      2.999902
  H       0.055394      2.992070      3.042073
  H       3.265661     -1.892496      0.841455
  H       1.718440     -2.908403     -1.148995
39
Coordinates from ORCA-job reaction4-IEIP_ts_guess_scan_8-4_orca E -1288.400622716276
  Ir      0.618047     -0.716975      0.431751
  C       0.081522     -2.816945      0.357523
  C       0.059849     -2.353780      1.718890
  C       2.207943     -2.109854      0.906597
  C       1.386915     -2.656631     -0.147772
  C       1.390999     -1.953547      2.046803
  N      -1.046493      0.143933     -0.524963
  C      -2.312834      0.421987      0.170381
  C      -3.104320      1.568769     -0.439411
  H      -3.927886      1.822042      0.226746
  H      -3.551143      1.311752     -1.400863
  H      -2.496113      2.465393     -0.561033
  C      -3.141368     -0.855442      0.247007
  H      -2.017890      0.706485      1.181438
  H      -4.046159     -0.671882      0.824651
  H      -3.442038     -1.192120     -0.745946
  H      -2.600379     -1.663787      0.736469
  C      -0.880673      0.397859     -1.768007
  C       0.454570      0.200160     -2.268551
  H      -1.680710      0.777946     -2.395961
  C       1.527066      0.276588     -1.379661
  C       2.741710     -0.058994     -2.051109
  S       0.912858     -0.251266     -3.838313
  C       2.559883     -0.361179     -3.364308
  H       1.530638      1.243509     -0.640474
  H       3.716005     -0.021931     -1.585826
  H       3.309336     -0.620306     -4.096697
  H      -0.762979     -3.205058     -0.193619
  H      -0.779853     -2.381995      2.396864
  H       1.702720     -1.529769      2.990892
  O       1.428953      2.426246      0.179666
  O       0.544904      0.960683      1.604916
  C       0.971002      2.128681      1.287264
  C       0.911208      3.154099      2.383733
  H       0.888187      4.159717      1.972861
  H       1.808663      3.065767      2.999050
  H       0.054336      2.995602      3.034748
  H       3.264103     -1.894988      0.848436
  H       1.718790     -2.911581     -1.143431
39
Coordinates from ORCA-job reaction4-IEIP_ts_guess_scan_8-4_orca E -1288.400629027940
  Ir      0.617627     -0.717161      0.433398
  C       0.081117     -2.816809      0.359272
  C       0.056529     -2.352236      1.720238
  C       2.206674     -2.109809      0.912623
  C       1.387708     -2.657059     -0.143167
  C       1.387320     -1.952312      2.050917
  N      -1.045947      0.143110     -0.524795
  C      -2.312667      0.419347      0.170786
  C      -3.104070      1.567410     -0.436866
  H      -3.927771      1.819185      0.229713
  H      -3.550659      1.312421     -1.398957
  H      -2.495906      2.464316     -0.556498
  C      -3.141147     -0.858329      0.243691
  H      -2.018508      0.701751      1.182625
  H      -4.046627     -0.676157      0.820731
  H      -3.440720     -1.192844     -0.750323
  H      -2.600726     -1.667814      0.731833
  C      -0.880958      0.398515     -1.767655
  C       0.453508      0.201480     -2.269536
  H      -1.681835      0.778603     -2.394465
  C       1.526267      0.271888     -1.380672
  C       2.740651     -0.060110     -2.053933
  S       0.911331     -0.242476     -3.841709
  C       2.558538     -0.352895     -3.369312
  H       1.531008      1.236928     -0.637965
  H       3.715045     -0.026710     -1.588613
  H       3.307960     -0.606925     -4.103514
  H      -0.762109     -3.205289     -0.193543
  H      -0.784741     -2.379498      2.396322
  H       1.697187     -1.527766      2.995268
  O       1.436818      2.422220      0.179378
  O       0.544338      0.961636      1.604733
  C       0.972946      2.128537      1.285597
  C       0.914534      3.155459      2.380579
  H       0.894734      4.160544      1.968241
  H       1.810974      3.065592      2.997145
  H       0.056376      3.000084      3.030600
  H       3.262987     -1.895101      0.856593
  H       1.721585     -2.912534     -1.138021
39
Coordinates from ORCA-job reaction4-IEIP_ts_guess_scan_8-4_orca E -1288.400634759072
  Ir      0.618102     -0.716627      0.434086
  C       0.082629     -2.816565      0.358081
  C       0.055453     -2.351732      1.719067
  C       2.207101     -2.109034      0.915560
  C       1.390058     -2.656229     -0.141808
  C       1.385760     -1.951914      2.052421
  N      -1.045525      0.142976     -0.524083
  C      -2.312269      0.418439      0.171970
  C      -3.103014      1.568224     -0.433474
  H      -3.926506      1.819258      0.233647
  H      -3.549805      1.315367     -1.396020
  H      -2.494266      2.464945     -0.551474
  C      -3.141487     -0.858927      0.241710
  H      -2.018332      0.698682      1.184447
  H      -4.047226     -0.677576      0.818623
  H      -3.440713     -1.191129     -0.753186
  H      -2.601848     -1.669862      0.728292
  C      -0.881201      0.398617     -1.767156
  C       0.452922      0.201717     -2.269942
  H      -1.682598      0.778704     -2.393253
  C       1.526195      0.269612     -1.381787
  C       2.740033     -0.061956     -2.055780
  S       0.910083     -0.238779     -3.843522
  C       2.556925     -0.353249     -3.371448
  H       1.532300      1.233252     -0.636604
  H       3.714671     -0.030307     -1.590871
  H       3.305925     -0.607200     -4.106110
  H      -0.759371     -3.205431     -0.196318
  H      -0.786974     -2.379446      2.393710
  H       1.693885     -1.527539      2.997416
  O       1.440553      2.419275      0.179955
  O       0.544034      0.961815      1.605831
  C       0.974762      2.127960      1.285916
  C       0.913420      3.156815      2.378777
  H       0.893592      4.161103      1.964468
  H       1.808813      3.068840      2.997104
  H       0.054148      3.001961      3.027434
  H       3.263403     -1.893826      0.861293
  H       1.725737     -2.911044     -1.136231
39
Coordinates from ORCA-job reaction4-IEIP_ts_guess_scan_8-4_orca E -1288.400640067903
  Ir      0.618677     -0.715628      0.434879
  C       0.085257     -2.816388      0.355880
  C       0.054139     -2.351719      1.716982
  C       2.207790     -2.107436      0.919513
  C       1.393835     -2.654717     -0.140203
  C       1.383367     -1.951548      2.054267
  N      -1.045227      0.142774     -0.523070
  C      -2.311935      0.417721      0.173330
  C      -3.101507      1.569738     -0.429589
  H      -3.924751      1.820190      0.238042
  H      -3.548487      1.319453     -1.392707
  H      -2.491760      2.466029     -0.545664
  C      -3.142280     -0.859098      0.239455
  H      -2.018165      0.695340      1.186551
  H      -4.048104     -0.678657      0.816528
  H      -3.441458     -1.188343     -0.756445
  H      -2.603495     -1.671924      0.723892
  C      -0.881699      0.397673     -1.766626
  C       0.452010      0.200956     -2.270476
  H      -1.683811      0.777200     -2.392164
  C       1.525858      0.267230     -1.383281
  C       2.739102     -0.064035     -2.057984
  S       0.908159     -0.238040     -3.845093
  C       2.554894     -0.354280     -3.373880
  H       1.533681      1.230133     -0.636275
  H       3.714098     -0.032948     -1.593814
  H       3.303519     -0.607924     -4.109032
  H      -0.754858     -3.205969     -0.200867
  H      -0.789885     -2.380827      2.389584
  H       1.688678     -1.527634      3.000384
  O       1.442461      2.416142      0.180364
  O       0.543256      0.962059      1.607574
  C       0.975340      2.127475      1.286346
  C       0.912729      3.158186      2.377299
  H       0.892141      4.161737      1.961206
  H       1.808084      3.072170      2.995941
  H       0.053402      3.003682      3.025948
  H       3.264026     -1.891266      0.867948
  H       1.732289     -2.908320     -1.134004
39
Coordinates from ORCA-job reaction4-IEIP_ts_guess_scan_8-4_orca E -1288.400642582214
  Ir      0.618943     -0.715114      0.435506
  C       0.087352     -2.816625      0.354375
  C       0.052958     -2.352322      1.715581
  C       2.208150     -2.106177      0.922968
  C       1.396859     -2.653778     -0.138594
  C       1.381075     -1.951450      2.055970
  N      -1.045321      0.142392     -0.522396
  C      -2.312056      0.417093      0.174074
  C      -3.100574      1.570779     -0.427095
  H      -3.923734      1.820873      0.240766
  H      -3.547550      1.322406     -1.390704
  H      -2.489989      2.466689     -0.541666
  C      -3.143301     -0.859272      0.237671
  H      -2.018443      0.692774      1.187860
  H      -4.048979     -0.679526      0.815190
  H      -3.442765     -1.186203     -0.758911
  H      -2.604963     -1.673520      0.720248
  C      -0.882297      0.396471     -1.766284
  C       0.451110      0.200095     -2.270810
  H      -1.684928      0.775299     -2.391607
  C       1.525295      0.265757     -1.384140
  C       2.738293     -0.064849     -2.059435
  S       0.906671     -0.237994     -3.846009
  C       2.553496     -0.354182     -3.375534
  H       1.534063      1.228578     -0.636455
  H       3.713519     -0.033628     -1.595768
  H       3.301967     -0.607153     -4.111076
  H      -0.751212     -3.206842     -0.204260
  H      -0.792342     -2.382773      2.386522
  H       1.683939     -1.527819      3.003007
  O       1.443303      2.414723      0.180038
  O       0.543083      0.962474      1.608389
  C       0.975759      2.127388      1.286167
  C       0.913536      3.159111      2.376208
  H       0.892041      4.162289      1.959247
  H       1.809553      3.074226      2.994052
  H       0.054895      3.004708      3.025776
  H       3.264332     -1.889241      0.873713
  H       1.737632     -2.906465     -1.131845
39
Coordinates from ORCA-job reaction4-IEIP_ts_guess_scan_8-4_orca E -1288.400645327036
  Ir      0.619187     -0.714625      0.436303
  C       0.090611     -2.817218      0.351823
  C       0.050751     -2.353758      1.713233
  C       2.208454     -2.104150      0.928633
  C       1.401687     -2.652431     -0.135953
  C       1.376881     -1.951428      2.058710
  N      -1.045580      0.141681     -0.521384
  C      -2.312291      0.416084      0.175211
  C      -3.099120      1.572269     -0.423402
  H      -3.922212      1.821864      0.244722
  H      -3.546005      1.326786     -1.387786
  H      -2.487219      2.467564     -0.535669
  C      -3.144858     -0.859603      0.235171
  H      -2.018850      0.688858      1.189825
  H      -4.050008     -0.681021      0.813872
  H      -3.445235     -1.182869     -0.762341
  H      -2.606858     -1.676025      0.714504
  C      -0.883368      0.394493     -1.765688
  C       0.449575      0.198665     -2.271157
  H      -1.686770      0.772131     -2.390796
  C       1.524257      0.264008     -1.385186
  C       2.736976     -0.065544     -2.061415
  S       0.904309     -0.238257     -3.847044
  C       2.551397     -0.353749     -3.377725
  H       1.534166      1.226983     -0.637123
  H       3.712513     -0.033889     -1.598446
  H       3.299643     -0.605696     -4.113848
  H      -0.745394     -3.208405     -0.209953
  H      -0.796703     -2.386429      2.381350
  H       1.675581     -1.528134      3.007231
  O       1.444449      2.413502      0.178942
  O       0.543299      0.963224      1.608759
  C       0.976636      2.127466      1.285311
  C       0.915413      3.160387      2.374360
  H       0.892076      4.163118      1.956409
  H       1.812832      3.077232      2.990416
  H       0.058256      3.005771      3.025816
  H       3.264558     -1.886042      0.883319
  H       1.746334     -2.903626     -1.128261
