39
Coordinates from ORCA-job reaction4-IEIP_ts_guess_scan_5-0_orca E -1288.400355180401
  Ir      0.604870     -0.706075      0.415359
  C       0.057100     -2.793771      0.321469
  C       0.143384     -2.338648      1.687151
  C       2.222642     -2.111730      0.721935
  C       1.318538     -2.631449     -0.279291
  C       1.508411     -1.969170      1.925326
  N      -1.052414      0.178670     -0.530756
  C      -2.315668      0.506556      0.147213
  C      -3.130508      1.571288     -0.568951
  H      -3.954689      1.875525      0.074795
  H      -3.578431      1.212613     -1.497171
  H      -2.540847      2.463293     -0.782796
  C      -3.121433     -0.768160      0.366175
  H      -2.012899      0.898420      1.119508
  H      -4.028103     -0.535150      0.922414
  H      -3.418766     -1.217302     -0.582346
  H      -2.569073     -1.507992      0.943818
  C      -0.856946      0.384264     -1.773195
  C       0.495351      0.141264     -2.225711
  H      -1.631417      0.751022     -2.440529
  C       1.585884      0.458442     -1.421254
  C       2.798271      0.027338     -2.036254
  S       0.940196     -0.633844     -3.675819
  C       2.601802     -0.570839     -3.240257
  H       1.517636      1.348199     -0.673457
  H       3.778358      0.205654     -1.618161
  H       3.345963     -0.960449     -3.918416
  H      -0.833281     -3.162254     -0.167505
  H      -0.641987     -2.370493      2.427907
  H       1.897888     -1.567685      2.849870
  O       1.280836      2.502470      0.254758
  O       0.541241      0.916217      1.639657
  C       0.893445      2.128818      1.356574
  C       0.825722      3.078772      2.520704
  H       0.772247      4.107164      2.173908
  H       1.732522      2.974438      3.119681
  H      -0.017494      2.861015      3.173111
  H       3.267512     -1.882918      0.574075
  H       1.573508     -2.864324     -1.302800
39
Coordinates from ORCA-job reaction4-IEIP_ts_guess_scan_5-0_orca E -1288.399328497824
  Ir      0.610044     -0.693446      0.406175
  C       0.077264     -2.785745      0.293352
  C       0.153319     -2.342998      1.663440
  C       2.235652     -2.091615      0.711083
  C       1.340594     -2.609409     -0.299183
  C       1.513843     -1.964328      1.911689
  N      -1.057950      0.186113     -0.535293
  C      -2.316845      0.520167      0.146506
  C      -3.137040      1.574628     -0.578594
  H      -3.958449      1.885658      0.065436
  H      -3.588893      1.203565     -1.500046
  H      -2.549855      2.464768     -0.806593
  C      -3.118671     -0.753312      0.385794
  H      -2.008527      0.924229      1.112048
  H      -4.022103     -0.515360      0.945174
  H      -3.421324     -1.214231     -0.555355
  H      -2.560904     -1.485122      0.968514
  C      -0.870822      0.374377     -1.782595
  C       0.481057      0.126384     -2.232976
  H      -1.649201      0.727408     -2.452734
  C       1.568142      0.478882     -1.437552
  C       2.782351      0.025347     -2.034240
  S       0.929318     -0.706437     -3.649111
  C       2.589394     -0.625610     -3.210819
  H       1.501769      1.424349     -0.757409
  H       3.761808      0.229258     -1.626591
  H       3.335982     -1.039549     -3.871559
  H      -0.807721     -3.156764     -0.203400
  H      -0.635321     -2.388066      2.399959
  H       1.895411     -1.568093      2.841764
  O       1.371342      2.473484      0.306689
  O       0.520528      0.912777      1.648297
  C       0.916407      2.115354      1.388019
  C       0.813595      3.068303      2.547205
  H       0.805822      4.097346      2.198311
  H       1.684821      2.940519      3.192599
  H      -0.068001      2.874000      3.154645
  H       3.279783     -1.854987      0.571079
  H       1.602753     -2.832653     -1.322986
39
Coordinates from ORCA-job reaction4-IEIP_ts_guess_scan_5-0_orca E -1288.400425351626
  Ir      0.611533     -0.709852      0.416849
  C       0.059258     -2.798751      0.323970
  C       0.141120     -2.345374      1.690163
  C       2.224452     -2.120238      0.732626
  C       1.323492     -2.638915     -0.271865
  C       1.505061     -1.976261      1.933059
  N      -1.048055      0.179862     -0.528515
  C      -2.308964      0.509751      0.150907
  C      -3.121122      1.576374     -0.565394
  H      -3.945154      1.882270      0.077730
  H      -3.568823      1.218658     -1.494141
  H      -2.529406      2.467168     -0.778683
  C      -3.116362     -0.763912      0.369418
  H      -2.004141      0.900095      1.123164
  H      -4.021713     -0.530130      0.927437
  H      -3.415934     -1.211333     -0.579203
  H      -2.563896     -1.505231      0.945161
  C      -0.854520      0.391308     -1.772182
  C       0.497283      0.149702     -2.231096
  H      -1.629930      0.764144     -2.434975
  C       1.590078      0.453189     -1.422014
  C       2.799526      0.022948     -2.046143
  S       0.935687     -0.622289     -3.684261
  C       2.598501     -0.567746     -3.252265
  H       1.536330      1.361347     -0.692478
  H       3.781668      0.199774     -1.632334
  H       3.339995     -0.953450     -3.935423
  H      -0.829670     -3.166252     -0.168339
  H      -0.646709     -2.377431      2.428194
  H       1.891340     -1.575468      2.859222
  O       1.246317      2.493914      0.247300
  O       0.537169      0.909921      1.645341
  C       0.877568      2.123337      1.356857
  C       0.810858      3.078841      2.516575
  H       0.743211      4.104759      2.164994
  H       1.724279      2.987308      3.107454
  H      -0.023833      2.855674      3.177931
  H       3.270565     -1.894628      0.589564
  H       1.582312     -2.873893     -1.293863
39
Coordinates from ORCA-job reaction4-IEIP_ts_guess_scan_5-0_orca E -1288.399385079854
  Ir      0.596512     -0.710594      0.423085
  C       0.039633     -2.798885      0.365172
  C       0.121306     -2.322599      1.723272
  C       2.205817     -2.118321      0.763680
  C       1.304585     -2.652283     -0.232249
  C       1.485614     -1.952516      1.960869
  N      -1.060188      0.162009     -0.539067
  C      -2.325903      0.485390      0.135700
  C      -3.144077      1.545228     -0.583901
  H      -3.971630      1.846302      0.057002
  H      -3.587475      1.182971     -1.512910
  H      -2.558130      2.439811     -0.797227
  C      -3.125721     -0.793055      0.354800
  H      -2.026756      0.879559      1.108114
  H      -4.034052     -0.564131      0.910035
  H      -3.419858     -1.244332     -0.593688
  H      -2.569885     -1.529546      0.933363
  C      -0.867525      0.373523     -1.782423
  C       0.485631      0.152039     -2.246798
  H      -1.645519      0.746379     -2.441982
  C       1.575461      0.433506     -1.427408
  C       2.791558      0.057743     -2.073070
  S       0.933170     -0.542367     -3.735366
  C       2.597432     -0.473012     -3.308138
  H       1.497918      1.282724     -0.634149
  H       3.771120      0.224484     -1.648955
  H       3.343248     -0.813378     -4.010528
  H      -0.849771     -3.172540     -0.121617
  H      -0.667314     -2.339912      2.460938
  H       1.871954     -1.536707      2.880370
  O       1.481992      2.455410      0.301028
  O       0.527859      0.931951      1.626140
  C       0.971412      2.119028      1.365001
  C       0.864480      3.083580      2.513907
  H       0.905968      4.109556      2.158452
  H       1.708091      2.929251      3.189494
  H      -0.043760      2.925721      3.091990
  H       3.252611     -1.897498      0.617699
  H       1.563561     -2.905301     -1.249895
39
Coordinates from ORCA-job reaction4-IEIP_ts_guess_scan_5-0_orca E -1288.400478011076
  Ir      0.605154     -0.704501      0.418280
  C       0.055910     -2.794234      0.335562
  C       0.134672     -2.334082      1.699363
  C       2.219241     -2.110458      0.743821
  C       1.320865     -2.635607     -0.259344
  C       1.497316     -1.961458      1.942324
  N      -1.052367      0.176670     -0.531447
  C      -2.317187      0.498192      0.145828
  C      -3.133961      1.563453     -0.567382
  H      -3.960781      1.862176      0.075556
  H      -3.578290      1.207216     -1.498278
  H      -2.546787      2.458372     -0.775864
  C      -3.119308     -0.779990      0.358015
  H      -2.016780      0.886343      1.120327
  H      -4.026968     -0.552532      0.914953
  H      -3.414725     -1.225323     -0.592885
  H      -2.564606     -1.520761      0.932137
  C      -0.857859      0.393033     -1.773981
  C       0.493070      0.156381     -2.237327
  H      -1.634668      0.765496     -2.435145
  C       1.587904      0.445954     -1.426249
  C       2.795777      0.019276     -2.055234
  S       0.929566     -0.584737     -3.706450
  C       2.592465     -0.549227     -3.271614
  H       1.537830      1.340258     -0.678815
  H       3.778201      0.180600     -1.635734
  H       3.332115     -0.929535     -3.959788
  H      -0.831688     -3.165400     -0.156372
  H      -0.654405     -2.363291      2.436143
  H       1.881360     -1.555154      2.867010
  O       1.336497      2.485188      0.269131
  O       0.527780      0.921923      1.638677
  C       0.912029      2.125376      1.362469
  C       0.831495      3.082275      2.519989
  H       0.807973      4.109808      2.167445
  H       1.719156      2.963010      3.144228
  H      -0.033613      2.884258      3.149516
  H       3.265373     -1.884259      0.601571
  H       1.581615     -2.875522     -1.279692
39
Coordinates from ORCA-job reaction4-IEIP_ts_guess_scan_5-0_orca E -1288.400475659044
  Ir      0.609177     -0.709869      0.419230
  C       0.055024     -2.798634      0.335961
  C       0.132430     -2.339107      1.699924
  C       2.219234     -2.120088      0.748048
  C       1.321343     -2.642976     -0.256793
  C       1.495379     -1.969285      1.945162
  N      -1.048751      0.176140     -0.531648
  C      -2.311940      0.501956      0.146534
  C      -3.125967      1.569461     -0.566414
  H      -3.951346      1.870915      0.077088
  H      -3.572117      1.214303     -1.496841
  H      -2.536271      2.462541     -0.775621
  C      -3.118036     -0.773537      0.359867
  H      -2.009418      0.889677      1.120576
  H      -4.024525     -0.542833      0.917350
  H      -3.415573     -1.218330     -0.590614
  H      -2.565323     -1.515826      0.933886
  C      -0.856744      0.387304     -1.775501
  C       0.493576      0.150346     -2.237575
  H      -1.634266      0.757364     -2.437247
  C       1.585501      0.446088     -1.425273
  C       2.796242      0.029766     -2.055672
  S       0.932386     -0.607931     -3.696907
  C       2.596615     -0.541609     -3.271494
  H       1.530648      1.350462     -0.688965
  H       3.777867      0.204892     -1.639879
  H       3.338966     -0.912451     -3.961911
  H      -0.832504     -3.167741     -0.157648
  H      -0.657988     -2.366726      2.435316
  H       1.878720     -1.563916      2.870550
  O       1.292422      2.491022      0.255689
  O       0.532781      0.916501      1.640752
  C       0.895494      2.124773      1.357360
  C       0.829080      3.079504      2.517512
  H       0.785356      4.107067      2.166989
  H       1.731741      2.970277      3.121784
  H      -0.019395      2.870307      3.165787
  H       3.266288     -1.896875      0.608002
  H       1.583263     -2.883744     -1.276623
39
Coordinates from ORCA-job reaction4-IEIP_ts_guess_scan_5-0_orca E -1288.400503820802
  Ir      0.608796     -0.708652      0.418668
  C       0.056272     -2.797614      0.335488
  C       0.133248     -2.338039      1.699392
  C       2.219935     -2.117360      0.747479
  C       1.322503     -2.641012     -0.257311
  C       1.495829     -1.967094      1.944576
  N      -1.049097      0.175592     -0.531671
  C      -2.312398      0.500178      0.147041
  C      -3.126505      1.568886     -0.564012
  H      -3.951790      1.869255      0.080124
  H      -3.572820      1.215326     -1.494963
  H      -2.536804      2.462295     -0.771785
  C      -3.118556     -0.775663      0.358241
  H      -2.009974      0.886295      1.121735
  H      -4.025056     -0.545864      0.916080
  H      -3.416068     -1.218869     -0.592991
  H      -2.565893     -1.518941      0.931025
  C      -0.857533      0.388126     -1.775308
  C       0.492759      0.153136     -2.238791
  H      -1.635514      0.758984     -2.436062
  C       1.585094      0.446547     -1.426323
  C       2.795401      0.025874     -2.054548
  S       0.932393     -0.591790     -3.704566
  C       2.595182     -0.545958     -3.270105
  H       1.530845      1.347871     -0.686147
  H       3.776847      0.193184     -1.635133
  H       3.336861     -0.923109     -3.957834
  H      -0.830960     -3.167365     -0.158183
  H      -0.657229     -2.366056      2.434696
  H       1.878800     -1.561284      2.869928
  O       1.300165      2.491310      0.256899
  O       0.532677      0.917939      1.639488
  C       0.899013      2.125385      1.357217
  C       0.828539      3.080791      2.516568
  H       0.787264      4.108236      2.165399
  H       1.728560      2.970958      3.124658
  H      -0.022856      2.872709      3.161384
  H       3.266850     -1.893398      0.607524
  H       1.584591     -2.881621     -1.277140
39
Coordinates from ORCA-job reaction4-IEIP_ts_guess_scan_5-0_orca E -1288.400508849018
  Ir      0.607724     -0.707699      0.420162
  C       0.057019     -2.796852      0.335705
  C       0.132291     -2.337816      1.699835
  C       2.219746     -2.114907      0.749896
  C       1.323728     -2.638984     -0.255891
  C       1.494251     -1.965727      1.946376
  N      -1.049131      0.174991     -0.530574
  C      -2.312883      0.498712      0.147793
  C      -3.126092      1.568946     -0.562025
  H      -3.951619      1.868643      0.082122
  H      -3.572044      1.217131     -1.493807
  H      -2.535806      2.462385     -0.768005
  C      -3.119612     -0.777250      0.356195
  H      -2.011130      0.883082      1.123357
  H      -4.026442     -0.548173      0.913801
  H      -3.416563     -1.218687     -0.596036
  H      -2.567564     -1.521749      0.928019
  C      -0.857497      0.387869     -1.774174
  C       0.492412      0.152275     -2.239034
  H      -1.635950      0.758223     -2.434657
  C       1.585821      0.442928     -1.426732
  C       2.795464      0.023085     -2.056714
  S       0.930719     -0.589451     -3.706704
  C       2.594137     -0.543270     -3.274661
  H       1.532409      1.342646     -0.684215
  H       3.777254      0.188230     -1.637281
  H       3.335091     -0.917895     -3.964549
  H      -0.829425     -3.167097     -0.159018
  H      -0.658937     -2.366542      2.434292
  H       1.875965     -1.559803      2.872203
  O       1.308813      2.487515      0.258802
  O       0.531279      0.918670      1.640345
  C       0.901959      2.124619      1.358059
  C       0.828792      3.082296      2.515431
  H       0.791581      4.109228      2.162331
  H       1.725912      2.971290      3.127589
  H      -0.025883      2.877448      3.156938
  H       3.266646     -1.890119      0.611134
  H       1.586933     -2.879004     -1.275572
39
Coordinates from ORCA-job reaction4-IEIP_ts_guess_scan_5-0_orca E -1288.400513406854
  Ir      0.608147     -0.708117      0.421108
  C       0.057590     -2.797301      0.336224
  C       0.131434     -2.338363      1.700432
  C       2.219916     -2.115225      0.752592
  C       1.324914     -2.639402     -0.254084
  C       1.493066     -1.966054      1.948297
  N      -1.048795      0.174395     -0.530319
  C      -2.312689      0.497523      0.148170
  C      -3.124736      1.569996     -0.559642
  H      -3.950206      1.869045      0.084885
  H      -3.570725      1.220602     -1.492307
  H      -2.533535      2.463302     -0.763528
  C      -3.120398     -0.778369      0.353217
  H      -2.011230      0.879489      1.124752
  H      -4.027308     -0.549992      0.910975
  H      -3.417209     -1.217355     -0.600188
  H      -2.569072     -1.524625      0.923461
  C      -0.857947      0.386992     -1.774149
  C       0.491606      0.152143     -2.239915
  H      -1.637135      0.756520     -2.434233
  C       1.584837      0.441772     -1.426989
  C       2.794696      0.023290     -2.057262
  S       0.930305     -0.587566     -3.708331
  C       2.593619     -0.541669     -3.275962
  H       1.530879      1.342112     -0.684902
  H       3.776364      0.188046     -1.637417
  H       3.334699     -0.915177     -3.966317
  H      -0.828288     -3.167601     -0.159484
  H      -0.660603     -2.366993      2.434017
  H       1.873792     -1.560008      2.874483
  O       1.306247      2.487686      0.257011
  O       0.532393      0.919142      1.640978
  C       0.901196      2.125220      1.357138
  C       0.830120      3.083582      2.514068
  H       0.791531      4.110284      2.160468
  H       1.728714      2.973425      3.124225
  H      -0.022951      2.878611      3.157664
  H       3.267026     -1.890654      0.615093
  H       1.589109     -2.879515     -1.273487
