39
Coordinates from ORCA-job reaction4-IEIP_ts_guess_scan_6-10_orca E -1288.399309744602
  Ir      0.603197     -0.722408      0.465546
  C       0.084083     -2.817058      0.342707
  C       0.028924     -2.360503      1.708112
  C       2.195947     -2.108762      0.952898
  C       1.400094     -2.643779     -0.127364
  C       1.354794     -1.968165      2.075533
  N      -1.046991      0.137518     -0.508068
  C      -2.322362      0.407106      0.177098
  C      -3.102420      1.567286     -0.423148
  H      -3.930548      1.816079      0.239082
  H      -3.541871      1.326921     -1.392171
  H      -2.487764      2.461618     -0.527396
  C      -3.156381     -0.868080      0.220280
  H      -2.041615      0.675257      1.196595
  H      -4.067392     -0.693786      0.791095
  H      -3.446836     -1.184067     -0.782531
  H      -2.623846     -1.688800      0.698511
  C      -0.876572      0.381021     -1.750363
  C       0.457521      0.194352     -2.252761
  H      -1.681401      0.741438     -2.384580
  C       1.550459      0.325625     -1.403492
  C       2.751416     -0.014364     -2.088474
  S       0.887641     -0.288418     -3.828701
  C       2.543564     -0.356376     -3.390136
  H       1.547691      1.272668     -0.595819
  H       3.736022      0.048608     -1.648387
  H       3.281953     -0.624115     -4.130848
  H      -0.745575     -3.203314     -0.231673
  H      -0.825260     -2.401565      2.367535
  H       1.642998     -1.555661      3.032073
  O       1.475488      2.378592      0.187479
  O       0.547874      0.962986      1.624584
  C       0.995658      2.115566      1.294480
  C       0.944266      3.165602      2.365953
  H       0.901277      4.160572      1.931049
  H       1.856279      3.104586      2.962997
  H       0.102764      3.012612      3.037513
  H       3.250841     -1.882844      0.916530
  H       1.755452     -2.874758     -1.120999
39
Coordinates from ORCA-job reaction4-IEIP_ts_guess_scan_6-10_orca E -1288.399457669773
  Ir      0.605854     -0.724444      0.467024
  C       0.081863     -2.819900      0.349614
  C       0.025550     -2.361997      1.714195
  C       2.193985     -2.114126      0.961405
  C       1.398872     -2.650258     -0.118733
  C       1.350969     -1.969997      2.082391
  N      -1.046688      0.136526     -0.509875
  C      -2.321275      0.405730      0.175574
  C      -3.102182      1.563950     -0.427189
  H      -3.931264      1.812712      0.233838
  H      -3.540186      1.321401     -1.396351
  H      -2.488592      2.458927     -0.532278
  C      -3.153472     -0.870506      0.220920
  H      -2.040175      0.675643      1.194520
  H      -4.064434     -0.696563      0.791893
  H      -3.443954     -1.188347     -0.781295
  H      -2.619523     -1.689745      0.700182
  C      -0.878259      0.382742     -1.754501
  C       0.456335      0.202973     -2.261884
  H      -1.684562      0.746229     -2.385079
  C       1.546460      0.320148     -1.407294
  C       2.748143     -0.015669     -2.094043
  S       0.887859     -0.266743     -3.841162
  C       2.542729     -0.342782     -3.399810
  H       1.546722      1.274871     -0.596764
  H       3.732014      0.041041     -1.651436
  H       3.282183     -0.603886     -4.141727
  H      -0.747528     -3.206030     -0.225265
  H      -0.829487     -2.401147      2.372508
  H       1.638344     -1.556361      3.038672
  O       1.479567      2.381493      0.185996
  O       0.548167      0.964221      1.626373
  C       0.998705      2.116658      1.295399
  C       0.948381      3.166897      2.366480
  H       0.906194      4.161904      1.931484
  H       1.860378      3.105098      2.963428
  H       0.106762      3.014545      3.037952
  H       3.249510     -1.891060      0.926627
  H       1.755404     -2.884959     -1.111048
39
Coordinates from ORCA-job reaction4-IEIP_ts_guess_scan_6-10_orca E -1288.399547633938
  Ir      0.603724     -0.725411      0.469646
  C       0.074725     -2.821113      0.361567
  C       0.016050     -2.360458      1.724416
  C       2.186313     -2.116817      0.974783
  C       1.393087     -2.655786     -0.104759
  C       1.340111     -1.967539      2.093260
  N      -1.044220      0.132128     -0.509900
  C      -2.319500      0.399404      0.174658
  C      -3.102422      1.556650     -0.427485
  H      -3.932494      1.803216      0.233152
  H      -3.539303      1.314049     -1.397106
  H      -2.490599      2.452984     -0.531351
  C      -3.150112     -0.877931      0.219855
  H      -2.038947      0.669138      1.193837
  H      -4.061430     -0.705271      0.790724
  H      -3.439951     -1.196089     -0.782424
  H      -2.615065     -1.696300      0.699211
  C      -0.875532      0.384327     -1.754890
  C       0.458511      0.209998     -2.269166
  H      -1.682904      0.752358     -2.381075
  C       1.547966      0.304880     -1.410749
  C       2.749334     -0.017858     -2.105212
  S       0.889439     -0.222768     -3.858474
  C       2.543762     -0.315633     -3.417816
  H       1.553579      1.269537     -0.597082
  H       3.733300      0.027035     -1.661355
  H       3.282830     -0.561812     -4.165126
  H      -0.753961     -3.207806     -0.213912
  H      -0.840420     -2.396473      2.380901
  H       1.625785     -1.550966      3.048767
  O       1.493639      2.377756      0.184004
  O       0.543770      0.966478      1.624386
  C       1.004116      2.114786      1.293211
  C       0.955779      3.167796      2.360867
  H       0.921897      4.162104      1.923514
  H       1.864607      3.101477      2.962154
  H       0.109991      3.021877      3.028398
  H       3.242537     -1.896875      0.942410
  H       1.751377     -2.895882     -1.095100
39
Coordinates from ORCA-job reaction4-IEIP_ts_guess_scan_6-10_orca E -1288.399580564278
  Ir      0.604664     -0.729091      0.473345
  C       0.071997     -2.824263      0.373065
  C       0.011568     -2.360031      1.734301
  C       2.183670     -2.121889      0.987286
  C       1.391579     -2.662932     -0.091849
  C       1.335196     -1.967323      2.103543
  N      -1.043170      0.128817     -0.511194
  C      -2.319943      0.393809      0.172372
  C      -3.102659      1.553201     -0.425954
  H      -3.933391      1.796859      0.234910
  H      -3.538759      1.314336     -1.396845
  H      -2.491096      2.450191     -0.525681
  C      -3.151720     -0.883050      0.212220
  H      -2.041025      0.660030      1.192942
  H      -4.064017     -0.711339      0.781822
  H      -3.439868     -1.197945     -0.791577
  H      -2.618422     -1.703212      0.690171
  C      -0.874753      0.386539     -1.754893
  C       0.457266      0.214810     -2.272562
  H      -1.683309      0.756246     -2.378499
  C       1.546398      0.293965     -1.412251
  C       2.747723     -0.018198     -2.111115
  S       0.887638     -0.194378     -3.867781
  C       2.542519     -0.289365     -3.429658
  H       1.556294      1.263244     -0.598170
  H       3.731513      0.017443     -1.666047
  H       3.281777     -0.521405     -4.181271
  H      -0.756246     -3.211366     -0.202767
  H      -0.846109     -2.392509      2.389365
  H       1.619916     -1.547921      3.058114
  O       1.501374      2.373065      0.181007
  O       0.545307      0.968039      1.623127
  C       1.009197      2.113125      1.290206
  C       0.963884      3.169904      2.353987
  H       0.933143      4.162937      1.913581
  H       1.872323      3.102700      2.955782
  H       0.117369      3.028425      3.021570
  H       3.240502     -1.904725      0.956763
  H       1.751039     -2.907554     -1.080625
39
Coordinates from ORCA-job reaction4-IEIP_ts_guess_scan_6-10_orca E -1288.399595153644
  Ir      0.604424     -0.731557      0.475867
  C       0.070713     -2.825883      0.380427
  C       0.007930     -2.359084      1.740545
  C       2.181818     -2.123992      0.996770
  C       1.391473     -2.666640     -0.082721
  C       1.330963     -1.966004      2.110863
  N      -1.042334      0.125971     -0.511656
  C      -2.320346      0.387932      0.171561
  C      -3.102803      1.550298     -0.421489
  H      -3.933745      1.790487      0.240336
  H      -3.538724      1.316353     -1.393666
  H      -2.491376      2.447909     -0.516499
  C      -3.152950     -0.888618      0.204199
  H      -2.043074      0.649491      1.193804
  H      -4.066345     -0.718749      0.772565
  H      -3.439169     -1.198937     -0.801584
  H      -2.621336     -1.711295      0.679681
  C      -0.874103      0.389173     -1.753666
  C       0.456029      0.220011     -2.273540
  H      -1.683685      0.760391     -2.375169
  C       1.545684      0.285925     -1.412979
  C       2.746554     -0.019242     -2.114746
  S       0.886902     -0.159669     -3.875602
  C       2.540165     -0.274651     -3.436506
  H       1.559939      1.257072     -0.598702
  H       3.730093      0.004373     -1.668417
  H       3.278567     -0.501956     -4.190409
  H      -0.756612     -3.213514     -0.196379
  H      -0.851067     -2.389172      2.393988
  H       1.614331     -1.544298      3.064837
  O       1.509406      2.368302      0.178763
  O       0.546045      0.970137      1.620723
  C       1.013590      2.112131      1.286938
  C       0.969735      3.172961      2.346984
  H       0.942060      4.164605      1.903347
  H       1.877247      3.105421      2.950136
  H       0.122007      3.035792      3.013989
  H       3.238988     -1.908241      0.968392
  H       1.752374     -2.914042     -1.070247
39
Coordinates from ORCA-job reaction4-IEIP_ts_guess_scan_6-10_orca E -1288.399606060553
  Ir      0.603149     -0.732086      0.476507
  C       0.070085     -2.825715      0.379364
  C       0.005573     -2.359274      1.739631
  C       2.180484     -2.123994      0.998676
  C       1.391514     -2.666151     -0.082071
  C       1.328250     -1.966341      2.111727
  N      -1.041388      0.125584     -0.510195
  C      -2.319238      0.387453      0.173358
  C      -3.101030      1.551131     -0.418179
  H      -3.931448      1.791106      0.244377
  H      -3.537622      1.318696     -1.390420
  H      -2.489030      2.448428     -0.512482
  C      -3.152378     -0.888751      0.204014
  H      -2.042040      0.647705      1.195948
  H      -4.065970     -0.719211      0.772160
  H      -3.438277     -1.197618     -0.802312
  H      -2.621375     -1.712448      0.678581
  C      -0.873124      0.388284     -1.752125
  C       0.456485      0.217475     -2.271893
  H      -1.682824      0.758775     -2.374000
  C       1.547185      0.282425     -1.412552
  C       2.747929     -0.019008     -2.115781
  S       0.886255     -0.163456     -3.874129
  C       2.540664     -0.270407     -3.438335
  H       1.561897      1.252924     -0.598638
  H       3.731918      0.005931     -1.670617
  H       3.278840     -0.492956     -4.193905
  H      -0.756418     -3.213077     -0.198809
  H      -0.854300     -2.389353      2.391929
  H       1.610515     -1.544754      3.066081
  O       1.510967      2.364931      0.177689
  O       0.545391      0.969573      1.619741
  C       1.013558      2.110898      1.285291
  C       0.968231      3.173752      2.343617
  H       0.940494      4.164558      1.898136
  H       1.875235      3.107702      2.947679
  H       0.120001      3.037521      3.010192
  H       3.237664     -1.908084      0.971805
  H       1.753548     -2.912979     -1.069319
39
Coordinates from ORCA-job reaction4-IEIP_ts_guess_scan_6-10_orca E -1288.399607927701
  Ir      0.603610     -0.732094      0.476489
  C       0.071579     -2.825755      0.377322
  C       0.005701     -2.359933      1.737859
  C       2.181285     -2.123688      0.999173
  C       1.393414     -2.665418     -0.082638
  C       1.328048     -1.966958      2.111511
  N      -1.041527      0.126058     -0.509749
  C      -2.319136      0.387776      0.174241
  C      -3.100391      1.552235     -0.416547
  H      -3.930563      1.792272      0.246314
  H      -3.537209      1.320615     -1.388874
  H      -2.487903      2.449224     -0.510479
  C      -3.152623     -0.888221      0.203690
  H      -2.041871      0.647239      1.196986
  H      -4.066275     -0.718995      0.771863
  H      -3.438476     -1.196102     -0.802951
  H      -2.621929     -1.712540      0.677483
  C      -0.873750      0.388161     -1.752034
  C       0.455921      0.217418     -2.271635
  H      -1.683599      0.758198     -2.373936
  C       1.546726      0.283165     -1.412627
  C       2.747319     -0.020020     -2.115169
  S       0.885766     -0.165789     -3.873531
  C       2.539929     -0.272949     -3.437510
  H       1.561916      1.252733     -0.598520
  H       3.731334      0.005211     -1.670095
  H       3.278063     -0.496652     -4.192788
  H      -0.754167     -3.213133     -0.201916
  H      -0.854746     -2.390674      2.389379
  H       1.609362     -1.545845      3.066355
  O       1.511002      2.364979      0.177464
  O       0.545937      0.969571      1.619864
  C       1.013411      2.111330      1.285001
  C       0.967020      3.174406      2.343094
  H       0.937810      4.164970      1.897153
  H       1.874346      3.109777      2.946813
  H       0.119224      3.037376      3.010036
  H       3.238401     -1.907332      0.973397
  H       1.756411     -2.911427     -1.069749
39
Coordinates from ORCA-job reaction4-IEIP_ts_guess_scan_6-10_orca E -1288.399611268467
  Ir      0.604446     -0.732471      0.477043
  C       0.074388     -2.826192      0.374059
  C       0.003799     -2.361364      1.734903
  C       2.181843     -2.123423      1.003825
  C       1.397749     -2.664597     -0.081003
  C       1.324800     -1.968139      2.113383
  N      -1.041135      0.126344     -0.508347
  C      -2.318444      0.387049      0.176505
  C      -3.098421      1.554086     -0.411121
  H      -3.928104      1.793419      0.252628
  H      -3.535655      1.325600     -1.383987
  H      -2.484783      2.450487     -0.502966
  C      -3.152932     -0.888370      0.201494
  H      -2.041274      0.643423      1.200006
  H      -4.066786     -0.720479      0.769777
  H      -3.438550     -1.192666     -0.806306
  H      -2.623099     -1.714806      0.672541
  C      -0.874538      0.388208     -1.751096
  C       0.454763      0.217853     -2.271412
  H      -1.685075      0.757653     -2.372401
  C       1.546213      0.281837     -1.413258
  C       2.746138     -0.021966     -2.116281
  S       0.883889     -0.164517     -3.874123
  C       2.537624     -0.274152     -3.438799
  H       1.563816      1.250311     -0.598198
  H       3.730493      0.002225     -1.671947
  H       3.275220     -0.498055     -4.194557
  H      -0.748942     -3.213792     -0.208450
  H      -0.858723     -2.393226      2.383633
  H       1.602808     -1.547670      3.069482
  O       1.514185      2.363556      0.176437
  O       0.547052      0.970064      1.619500
  C       1.014489      2.111819      1.283463
  C       0.965206      3.176595      2.339700
  H       0.933179      4.166135      1.891641
  H       1.872871      3.115672      2.943263
  H       0.117901      3.038602      3.007025
  H       3.238918     -1.906483      0.981907
  H       1.764044     -2.909380     -1.067219
39
Coordinates from ORCA-job reaction4-IEIP_ts_guess_scan_6-10_orca E -1288.399614629088
  Ir      0.605345     -0.732850      0.477879
  C       0.077656     -2.826868      0.371059
  C       0.000340     -2.362851      1.731981
  C       2.181798     -2.122836      1.011527
  C       1.403158     -2.663935     -0.077159
  C       1.319169     -1.968938      2.117013
  N      -1.040527      0.126128     -0.506583
  C      -2.317727      0.385224      0.179055
  C      -3.096196      1.555664     -0.404056
  H      -3.925526      1.793568      0.260644
  H      -3.533615      1.331576     -1.377850
  H      -2.481250      2.451496     -0.492544
  C      -3.153484     -0.889456      0.197863
  H      -2.040864      0.637187      1.203698
  H      -4.067457     -0.723584      0.766567
  H      -3.438999     -1.188649     -0.811501
  H      -2.624570     -1.718778      0.664881
  C      -0.875233      0.388483     -1.749562
  C       0.453365      0.218660     -2.271413
  H      -1.686717      0.757653     -2.369787
  C       1.545829      0.278957     -1.414399
  C       2.744665     -0.024490     -2.119122
  S       0.880873     -0.159683     -3.875837
  C       2.534413     -0.272812     -3.442257
  H       1.567220      1.246655     -0.597772
  H       3.729568     -0.002650     -1.675912
  H       3.271100     -0.495604     -4.199239
  H      -0.742301     -3.215096     -0.215757
  H      -0.865113     -2.395949      2.376742
  H       1.592335     -1.548840      3.074679
  O       1.520231      2.361131      0.175256
  O       0.548326      0.971059      1.618592
  C       1.016886      2.112124      1.281310
  C       0.964373      3.179362      2.334836
  H       0.929401      4.167555      1.883970
  H       1.872377      3.122862      2.938292
  H       0.117519      3.040674      3.002536
  H       3.238837     -1.905327      0.995010
  H       1.774164     -2.907632     -1.061900
39
Coordinates from ORCA-job reaction4-IEIP_ts_guess_scan_6-10_orca E -1288.399618280937
  Ir      0.606560     -0.733224      0.478933
  C       0.082444     -2.827981      0.367315
  C      -0.005218     -2.364776      1.728064
  C       2.181267     -2.121451      1.023679
  C       1.411127     -2.663165     -0.070515
  C       1.309977     -1.969341      2.122860
  N      -1.039818      0.125465     -0.504259
  C      -2.317071      0.382145      0.182232
  C      -3.093535      1.557347     -0.394230
  H      -3.922689      1.792768      0.271548
  H      -3.530826      1.339704     -1.369532
  H      -2.476946      2.452555     -0.477390
  C      -3.154549     -0.891498      0.192159
  H      -2.040736      0.627588      1.208572
  H      -4.068360     -0.728783      0.762039
  H      -3.440434     -1.183040     -0.819348
  H      -2.626559     -1.724988      0.652831
  C      -0.876105      0.389114     -1.747225
  C       0.451382      0.219850     -2.271572
  H      -1.688834      0.758371     -2.365805
  C       1.545391      0.274669     -1.416253
  C       2.742523     -0.027563     -2.124215
  S       0.875810     -0.152239     -3.878474
  C       2.529532     -0.269877     -3.448116
  H       1.572492      1.241526     -0.597254
  H       3.728305     -0.009071     -1.682820
  H       3.264723     -0.490639     -4.207146
  H      -0.732384     -3.217528     -0.225711
  H      -0.875094     -2.399637      2.366761
  H       1.575510     -1.549357      3.082735
  O       1.530124      2.357433      0.173976
  O       0.550089      0.972666      1.617012
  C       1.021165      2.112255      1.278418
  C       0.964704      3.183018      2.328072
  H       0.925594      4.169349      1.873398
  H       1.873462      3.132726      2.930917
  H       0.118753      3.043439      2.996663
  H       3.238206     -1.903130      1.015273
  H       1.789388     -2.905513     -1.052851
39
Coordinates from ORCA-job reaction4-IEIP_ts_guess_scan_6-10_orca E -1288.399621142354
  Ir      0.607512     -0.733358      0.479645
  C       0.087594     -2.829172      0.363744
  C      -0.011141     -2.366491      1.724049
  C       2.180379     -2.119043      1.036491
  C       1.419507     -2.662249     -0.063163
  C       1.299840     -1.968726      2.128929
  N      -1.039585      0.124536     -0.502353
  C      -2.317015      0.378813      0.184799
  C      -3.091771      1.558342     -0.385231
  H      -3.921109      1.790916      0.281288
  H      -3.528540      1.346939     -1.362133
  H      -2.473932      2.453189     -0.462819
  C      -3.155924     -0.893936      0.186376
  H      -2.041222      0.617963      1.212764
  H      -4.069132     -0.734576      0.758160
  H      -3.442876     -1.177860     -0.827001
  H      -2.628266     -1.731391      0.640281
  C      -0.877112      0.389965     -1.745010
  C       0.449303      0.221095     -2.271895
  H      -1.690826      0.759867     -2.361984
  C       1.544823      0.270804     -1.418271
  C       2.740196     -0.030340     -2.129736
  S       0.870166     -0.144989     -3.881029
  C       2.524495     -0.266652     -3.454251
  H       1.577746      1.236884     -0.597006
  H       3.726815     -0.015166     -1.690073
  H       3.258094     -0.485399     -4.215392
  H      -0.721780     -3.220566     -0.235468
  H      -0.885635     -2.403216      2.356309
  H       1.556994     -1.548362      3.090934
  O       1.541004      2.353629      0.173296
  O       0.551535      0.974402      1.615119
  C       1.026213      2.112074      1.275923
  C       0.967028      3.186096      2.322070
  H       0.923739      4.170739      1.864041
  H       1.877075      3.141681      2.923425
  H       0.122532      3.045691      2.992262
  H       3.237110     -1.899700      1.036484
  H       1.805532     -2.903244     -1.042831
39
Coordinates from ORCA-job reaction4-IEIP_ts_guess_scan_6-10_orca E -1288.399622883635
  Ir      0.607892     -0.733248      0.479765
  C       0.092287     -2.830189      0.360584
  C      -0.016011     -2.367809      1.720366
  C       2.179497     -2.115910      1.046957
  C       1.426810     -2.661135     -0.057095
  C       1.291070     -1.967269      2.133626
  N      -1.040075      0.123730     -0.501399
  C      -2.317663      0.376263      0.186200
  C      -3.091474      1.558548     -0.379349
  H      -3.921274      1.788648      0.287435
  H      -3.527521      1.351546     -1.357516
  H      -2.473136      2.453413     -0.452611
  C      -3.157305     -0.896025      0.182207
  H      -2.042221      0.611101      1.215258
  H      -4.069569     -0.739371      0.756232
  H      -3.445839     -1.174372     -0.832265
  H      -2.629259     -1.736222      0.630626
  C      -0.878264      0.390823     -1.743624
  C       0.447455      0.222028     -2.272299
  H      -1.692409      0.761691     -2.359520
  C       1.544071      0.268562     -1.419951
  C       2.738114     -0.032059     -2.134113
  S       0.865279     -0.140638     -3.882715
  C       2.520419     -0.264761     -3.458833
  H       1.581444      1.234010     -0.597252
  H       3.725303     -0.019011     -1.695634
  H       3.252722     -0.482344     -4.221535
  H      -0.712400     -3.223586     -0.243577
  H      -0.894394     -2.406214      2.347117
  H       1.540809     -1.546153      3.097269
  O       1.550139      2.350659      0.173430
  O       0.552187      0.975815      1.613404
  C       1.030821      2.111641      1.274536
  C       0.971000      3.187742      2.318556
  H       0.923897      4.171274      1.858452
  H       1.882917      3.147722      2.917386
  H       0.128580      3.046507      2.991132
  H       3.235937     -1.895391      1.053926
  H       1.819535     -2.900824     -1.034437
39
Coordinates from ORCA-job reaction4-IEIP_ts_guess_scan_6-10_orca E -1288.399624017845
  Ir      0.607666     -0.733042      0.479422
  C       0.096033     -2.830928      0.357861
  C      -0.019350     -2.368793      1.717237
  C       2.178831     -2.112690      1.053996
  C       1.432352     -2.659887     -0.053156
  C       1.284707     -1.965573      2.136476
  N      -1.041056      0.123261     -0.501322
  C      -2.318658      0.374875      0.186629
  C      -3.092305      1.558242     -0.376753
  H      -3.922581      1.786663      0.290015
  H      -3.527753      1.353419     -1.355646
  H      -2.474110      2.453400     -0.447564
  C      -3.158370     -0.897382      0.180229
  H      -2.043281      0.607794      1.216147
  H      -4.069658     -0.742410      0.756254
  H      -3.448512     -1.172784     -0.834580
  H      -2.629533     -1.738919      0.625216
  C      -0.879497      0.391440     -1.743223
  C       0.445957      0.222536     -2.272731
  H      -1.693620      0.763195     -2.358648
  C       1.543139      0.267904     -1.421098
  C       2.736464     -0.032893     -2.136607
  S       0.861981     -0.139235     -3.883548
  C       2.517761     -0.264385     -3.461281
  H       1.583129      1.232964     -0.597980
  H       3.723885     -0.020739     -1.698600
  H       3.249267     -0.481697     -4.224809
  H      -0.705175     -3.226111     -0.249732
  H      -0.900555     -2.408537      2.339933
  H       1.528863     -1.543628      3.101198
  O       1.556274      2.348840      0.173989
  O       0.552009      0.976760      1.612060
  C       1.034235      2.111173      1.274108
  C       0.975526      3.188019      2.317491
  H       0.924974      4.171034      1.856589
  H       1.889706      3.150819      2.913047
  H       0.135638      3.045830      2.992983
  H       3.234964     -1.890975      1.065940
  H       1.830022     -2.898367     -1.028804
39
Coordinates from ORCA-job reaction4-IEIP_ts_guess_scan_6-10_orca E -1288.399625051652
  Ir      0.607104     -0.732900      0.478957
  C       0.098907     -2.831494      0.355527
  C      -0.021415     -2.369700      1.714687
  C       2.178455     -2.109915      1.058352
  C       1.436388     -2.658648     -0.050945
  C       1.280493     -1.964231      2.137995
  N      -1.042132      0.123105     -0.501670
  C      -2.319604      0.374430      0.186605
  C      -3.093470      1.557896     -0.376165
  H      -3.924052      1.785430      0.290538
  H      -3.528591      1.353742     -1.355340
  H      -2.475645      2.453383     -0.446005
  C      -3.159123     -0.897965      0.179809
  H      -2.044082      0.607031      1.216156
  H      -4.069655     -0.743776      0.757244
  H      -3.450514     -1.172281     -0.834927
  H      -2.629564     -1.739950      0.623078
  C      -0.880687      0.391715     -1.743452
  C       0.444759      0.222625     -2.273131
  H      -1.694621      0.764008     -2.358797
  C       1.542137      0.268028     -1.421789
  C       2.735236     -0.033147     -2.137624
  S       0.860136     -0.139682     -3.883881
  C       2.516218     -0.264957     -3.462158
  H       1.583275      1.232986     -0.598963
  H       3.722679     -0.020989     -1.699658
  H       3.247342     -0.482486     -4.225981
  H      -0.699815     -3.228103     -0.254396
  H      -0.904562     -2.410502      2.334556
  H       1.520744     -1.541634      3.103418
  O       1.559666      2.347908      0.174490
  O       0.551372      0.977299      1.611104
  C       1.036405      2.110799      1.274131
  C       0.979564      3.187522      2.317786
  H       0.925494      4.170352      1.856832
  H       1.896221      3.152368      2.909643
  H       0.142510      3.044054      2.996476
  H       3.234305     -1.887088      1.073700
  H       1.837490     -2.896041     -1.025462
39
Coordinates from ORCA-job reaction4-IEIP_ts_guess_scan_6-10_orca E -1288.399626009855
  Ir      0.606501     -0.732845      0.478641
  C       0.100625     -2.831861      0.353933
  C      -0.022456     -2.370446      1.713048
  C       2.178278     -2.108146      1.060520
  C       1.438708     -2.657698     -0.050025
  C       1.278253     -1.963572      2.138624
  N      -1.042902      0.123162     -0.502039
  C      -2.320209      0.374514      0.186469
  C      -3.094379      1.557694     -0.376465
  H      -3.925046      1.784974      0.290234
  H      -3.529442      1.353407     -1.355633
  H      -2.476859      2.453391     -0.446278
  C      -3.159507     -0.898025      0.180111
  H      -2.044499      0.607531      1.215869
  H      -4.069699     -0.744012      0.758135
  H      -3.451472     -1.172312     -0.834463
  H      -2.629568     -1.739996      0.622933
  C      -0.881560      0.391691     -1.743881
  C       0.443963      0.222466     -2.273425
  H      -1.695372      0.764080     -2.359308
  C       1.541320      0.268304     -1.422094
  C       2.734502     -0.033162     -2.137648
  S       0.859548     -0.140580     -3.884012
  C       2.515579     -0.265639     -3.462104
  H       1.582567      1.233418     -0.599838
  H       3.721875     -0.020674     -1.699534
  H       3.246641     -0.483463     -4.225905
  H      -0.696623     -3.229356     -0.257335
  H      -0.906686     -2.411937      2.331323
  H       1.516348     -1.540656      3.104444
  O       1.560794      2.347673      0.174629
  O       0.550745      0.977574      1.610554
  C       1.037421      2.110655      1.274213
  C       0.982310      3.186888      2.318465
  H       0.924822      4.169672      1.857776
  H       1.901258      3.153424      2.906852
  H       0.147946      3.041913      3.000101
  H       3.233928     -1.884525      1.077798
  H       1.841716     -2.894336     -1.023944
39
Coordinates from ORCA-job reaction4-IEIP_ts_guess_scan_6-10_orca E -1288.399626874082
  Ir      0.606101     -0.732857      0.478581
  C       0.101394     -2.832075      0.353127
  C      -0.022866     -2.370997      1.712284
  C       2.178213     -2.107399      1.061417
  C       1.439714     -2.657150     -0.049732
  C       1.277336     -1.963525      2.138880
  N      -1.043244      0.123258     -0.502205
  C      -2.320443      0.374719      0.186406
  C      -3.094738      1.557726     -0.376770
  H      -3.925334      1.785103      0.289990
  H      -3.529889      1.353199     -1.355846
  H      -2.477280      2.453444     -0.446840
  C      -3.159682     -0.897848      0.180374
  H      -2.044625      0.608110      1.215686
  H      -4.069894     -0.743749      0.758348
  H      -3.451636     -1.172339     -0.834149
  H      -2.629745     -1.739746      0.623324
  C      -0.882022      0.391483     -1.744179
  C       0.443539      0.222205     -2.273591
  H      -1.695860      0.763678     -2.359668
  C       1.540822      0.268355     -1.422169
  C       2.734182     -0.033107     -2.137353
  S       0.859618     -0.141157     -3.884110
  C       2.515435     -0.265973     -3.461810
  H       1.581677      1.233726     -0.600374
  H       3.721498     -0.020314     -1.699132
  H       3.246583     -0.483908     -4.225507
  H      -0.695133     -3.229982     -0.258809
  H      -0.907565     -2.412868      2.329860
  H       1.514541     -1.540588      3.104911
  O       1.560583      2.347769      0.174416
  O       0.550414      0.977683      1.610345
  C       1.037658      2.110674      1.274180
  C       0.983655      3.186495      2.318890
  H       0.922920      4.169219      1.858442
  H       1.904530      3.154752      2.904343
  H       0.151620      3.039920      3.002991
  H       3.233756     -1.883346      1.079599
  H       1.843534     -2.893400     -1.023413
