39
Coordinates from ORCA-job reaction4-IEIP_ts_guess_scan_10-8_orca E -1288.401526678730
  Ir      0.612028     -0.715558      0.431249
  C       0.117866     -2.825103      0.340591
  C      -0.024324     -2.360313      1.695327
  C       2.182140     -2.074637      1.059069
  C       1.461372     -2.646988     -0.049828
  C       1.262791     -1.928326      2.126528
  N      -1.062882      0.131220     -0.518491
  C      -2.336375      0.354987      0.183965
  C      -3.136899      1.530458     -0.358133
  H      -3.965699      1.733437      0.318458
  H      -3.576638      1.329112     -1.335926
  H      -2.537268      2.438700     -0.421872
  C      -3.155618     -0.930862      0.168574
  H      -2.054573      0.580103      1.213548
  H      -4.064066     -0.797782      0.754580
  H      -3.450360     -1.197443     -0.847220
  H      -2.609912     -1.769738      0.597335
  C      -0.907200      0.441604     -1.746494
  C       0.415655      0.261905     -2.258342
  H      -1.713536      0.845102     -2.351111
  C       1.474372      0.163215     -1.357388
  C       2.681628     -0.124502     -2.063198
  S       0.877171      0.031847     -3.875820
  C       2.506531     -0.216875     -3.410115
  H       1.593914      1.151100     -0.574338
  H       3.651341     -0.199333     -1.592897
  H       3.256934     -0.395967     -4.165133
  H      -0.667099     -3.238759     -0.275766
  H      -0.915342     -2.403303      2.303200
  H       1.485466     -1.490267      3.089293
  O       1.684686      2.317828      0.167760
  O       0.538976      1.008351      1.553884
  C       1.094247      2.114814      1.240170
  C       1.035477      3.204011      2.271182
  H       1.012478      4.181797      1.796580
  H       1.938241      3.158290      2.882976
  H       0.179762      3.086709      2.930972
  H       3.237217     -1.850605      1.092090
  H       1.876869     -2.899036     -1.014521
39
Coordinates from ORCA-job reaction4-IEIP_ts_guess_scan_10-8_orca E -1288.401575904314
  Ir      0.611605     -0.708689      0.426877
  C       0.122047     -2.821788      0.339019
  C      -0.020709     -2.358591      1.694118
  C       2.183897     -2.065922      1.057423
  C       1.465006     -2.640652     -0.051308
  C       1.263974     -1.922231      2.124422
  N      -1.068419      0.131840     -0.519616
  C      -2.341353      0.355523      0.184007
  C      -3.144109      1.528283     -0.360660
  H      -3.972855      1.731651      0.315841
  H      -3.583975      1.323604     -1.337714
  H      -2.546067      2.437401     -0.427171
  C      -3.158786     -0.931482      0.172890
  H      -2.058991      0.583804      1.212766
  H      -4.066895     -0.798226      0.759376
  H      -3.454128     -1.201208     -0.841915
  H      -2.611478     -1.768438      0.603367
  C      -0.911914      0.438741     -1.753227
  C       0.413653      0.259469     -2.268420
  H      -1.719392      0.838833     -2.358559
  C       1.471734      0.163163     -1.366208
  C       2.679239     -0.129086     -2.070158
  S       0.876301      0.024212     -3.884872
  C       2.504991     -0.226543     -3.416770
  H       1.598603      1.174950     -0.601421
  H       3.648810     -0.202071     -1.599089
  H       3.255870     -0.409802     -4.170213
  H      -0.661749     -3.238043     -0.277114
  H      -0.911119     -2.404828      2.302538
  H       1.485413     -1.483994      3.087390
  O       1.739094      2.291760      0.206788
  O       0.526126      1.013697      1.556784
  C       1.108740      2.109151      1.260253
  C       1.035902      3.204822      2.283147
  H       1.045634      4.180331      1.803325
  H       1.917442      3.146676      2.924141
  H       0.157252      3.105983      2.915100
  H       3.238590     -1.840198      1.091184
  H       1.881385     -2.892912     -1.015580
39
Coordinates from ORCA-job reaction4-IEIP_ts_guess_scan_10-8_orca E -1288.400617401040
  Ir      0.621652     -0.715207      0.428104
  C       0.122623     -2.830333      0.334721
  C      -0.016776     -2.376810      1.693160
  C       2.186391     -2.085588      1.055429
  C       1.465784     -2.652322     -0.055790
  C       1.266848     -1.945313      2.123065
  N      -1.057714      0.137575     -0.506938
  C      -2.329575      0.362768      0.197542
  C      -3.123785      1.545266     -0.338524
  H      -3.953012      1.747655      0.337611
  H      -3.562130      1.351833     -1.318573
  H      -2.520148      2.451364     -0.395538
  C      -3.155109     -0.918814      0.173612
  H      -2.047415      0.579950      1.228772
  H      -4.063289     -0.785292      0.759912
  H      -3.450633     -1.177458     -0.844045
  H      -2.613718     -1.763072      0.597281
  C      -0.892735      0.457190     -1.745556
  C       0.436896      0.273146     -2.269054
  H      -1.697385      0.868242     -2.347220
  C       1.491787      0.144949     -1.365802
  C       2.694862     -0.165836     -2.070557
  S       0.898861      0.047132     -3.887014
  C       2.521597     -0.243940     -3.418339
  H       1.659868      1.181411     -0.614266
  H       3.662229     -0.261841     -1.598732
  H       3.270506     -0.434469     -4.171790
  H      -0.662815     -3.241448     -0.282832
  H      -0.906109     -2.425079      2.302767
  H       1.490172     -1.514025      3.088720
  O       1.544494      2.342875      0.132657
  O       0.531069      1.004076      1.578131
  C       1.033056      2.126005      1.243938
  C       0.996940      3.216358      2.273437
  H       0.907562      4.190748      1.799474
  H       1.936825      3.207588      2.828291
  H       0.188366      3.068822      2.984263
  H       3.242261     -1.865845      1.091374
  H       1.881071     -2.903072     -1.020953
39
Coordinates from ORCA-job reaction4-IEIP_ts_guess_scan_10-8_orca E -1288.401850941927
  Ir      0.612685     -0.716034      0.429794
  C       0.112829     -2.828532      0.348647
  C      -0.024435     -2.365467      1.704087
  C       2.178964     -2.080496      1.061116
  C       1.455707     -2.653511     -0.045390
  C       1.261464     -1.932487      2.129878
  N      -1.065198      0.130034     -0.514268
  C      -2.338690      0.352497      0.187154
  C      -3.137437      1.529542     -0.354111
  H      -3.968281      1.730932      0.320416
  H      -3.573918      1.330611     -1.333868
  H      -2.537502      2.437873     -0.413818
  C      -3.158256     -0.933032      0.167173
  H      -2.058309      0.574740      1.217709
  H      -4.067557     -0.801373      0.752175
  H      -3.451558     -1.196831     -0.849767
  H      -2.613281     -1.773136      0.594533
  C      -0.905529      0.444183     -1.748150
  C       0.421499      0.268199     -2.266691
  H      -1.712250      0.850160     -2.350419
  C       1.476769      0.151988     -1.363248
  C       2.686224     -0.133698     -2.067400
  S       0.887587      0.051632     -3.884464
  C       2.515720     -0.207162     -3.416050
  H       1.609664      1.167828     -0.591780
  H       3.654276     -0.215800     -1.594622
  H       3.268587     -0.379013     -4.170227
  H      -0.674068     -3.242432     -0.265112
  H      -0.913315     -2.408232      2.314906
  H       1.486699     -1.494475      3.092057
  O       1.668783      2.330856      0.159269
  O       0.541879      1.011541      1.555042
  C       1.088809      2.120425      1.238230
  C       1.034910      3.208409      2.269549
  H       0.998064      4.186296      1.795964
  H       1.945781      3.169735      2.869682
  H       0.188379      3.083309      2.939465
  H       3.234831     -1.860231      1.093290
  H       1.868844     -2.909656     -1.010012
39
Coordinates from ORCA-job reaction4-IEIP_ts_guess_scan_10-8_orca E -1288.401886677153
  Ir      0.612891     -0.715573      0.430113
  C       0.112165     -2.827285      0.350839
  C      -0.025959     -2.363924      1.705882
  C       2.178074     -2.079813      1.064282
  C       1.455560     -2.653234     -0.042291
  C       1.259677     -1.931007      2.132217
  N      -1.064058      0.129758     -0.515465
  C      -2.337862      0.350951      0.185818
  C      -3.138313      1.527192     -0.354774
  H      -3.969111      1.727494      0.320138
  H      -3.575046      1.327931     -1.334330
  H      -2.539434      2.436200     -0.414590
  C      -3.156247     -0.935410      0.166438
  H      -2.057403      0.573411      1.216391
  H      -4.065564     -0.804511      0.751621
  H      -3.449444     -1.199768     -0.850373
  H      -2.610305     -1.774788      0.593944
  C      -0.905628      0.445409     -1.747516
  C       0.419562      0.270365     -2.267203
  H      -1.713049      0.852000     -2.348348
  C       1.475206      0.150039     -1.364944
  C       2.683735     -0.133990     -2.070821
  S       0.885627      0.068333     -3.886740
  C       2.511855     -0.203543     -3.419572
  H       1.609727      1.169414     -0.598837
  H       3.651623     -0.221652     -1.598883
  H       3.263559     -0.375996     -4.174778
  H      -0.674367     -3.241160     -0.263365
  H      -0.915470     -2.405678      2.315871
  H       1.484355     -1.492329      3.094234
  O       1.692508      2.318859      0.170660
  O       0.540901      1.011668      1.554143
  C       1.096113      2.116547      1.242038
  C       1.034636      3.209112      2.268556
  H       1.008076      4.185378      1.790905
  H       1.938000      3.168705      2.879834
  H       0.179454      3.090570      2.928645
  H       3.234032     -1.860138      1.097379
  H       1.869296     -2.910348     -1.006382
39
Coordinates from ORCA-job reaction4-IEIP_ts_guess_scan_10-8_orca E -1288.401916741663
  Ir      0.612268     -0.718078      0.431690
  C       0.108008     -2.828805      0.357241
  C      -0.029501     -2.364119      1.711756
  C       2.174916     -2.083645      1.069521
  C       1.451867     -2.657586     -0.036225
  C       1.256339     -1.932047      2.137137
  N      -1.063668      0.128714     -0.515424
  C      -2.338501      0.347449      0.185005
  C      -3.140015      1.523789     -0.353847
  H      -3.971428      1.721861      0.320925
  H      -3.576000      1.325823     -1.334002
  H      -2.542137      2.433595     -0.411663
  C      -3.155865     -0.939573      0.162990
  H      -2.059190      0.568339      1.216279
  H      -4.065951     -0.810246      0.747324
  H      -3.447652     -1.202773     -0.854531
  H      -2.609717     -1.779023      0.589989
  C      -0.904717      0.448651     -1.746207
  C       0.419534      0.274548     -2.267430
  H      -1.712400      0.856893     -2.345564
  C       1.474284      0.143378     -1.365510
  C       2.683131     -0.135018     -2.072959
  S       0.886189      0.085578     -3.888232
  C       2.512997     -0.185719     -3.422849
  H       1.612357      1.166491     -0.601339
  H       3.650410     -0.229131     -1.601073
  H       3.265605     -0.348250     -4.179367
  H      -0.678999     -3.242456     -0.256498
  H      -0.919211     -2.403426      2.321596
  H       1.481613     -1.492109      3.098451
  O       1.702135      2.314754      0.169139
  O       0.544412      1.012685      1.552030
  C       1.102796      2.115140      1.239792
  C       1.039643      3.211602      2.262217
  H       1.013131      4.186115      1.780976
  H       1.942403      3.174014      2.874542
  H       0.183742      3.095058      2.921728
  H       3.231285     -1.866032      1.102901
  H       1.865258     -2.917252     -0.999768
39
Coordinates from ORCA-job reaction4-IEIP_ts_guess_scan_10-8_orca E -1288.401954822551
  Ir      0.610246     -0.725326      0.435180
  C       0.098470     -2.833566      0.373406
  C      -0.039013     -2.365175      1.726406
  C       2.166794     -2.092669      1.084440
  C       1.443808     -2.668806     -0.019702
  C       1.246651     -1.934116      2.150377
  N      -1.062681      0.124667     -0.515640
  C      -2.339609      0.337474      0.183351
  C      -3.143436      1.514530     -0.350511
  H      -3.975911      1.707136      0.324422
  H      -3.578130      1.320317     -1.332014
  H      -2.547724      2.426092     -0.403322
  C      -3.154855     -0.950809      0.154304
  H      -2.062803      0.554018      1.216340
  H      -4.066899     -0.825042      0.736329
  H      -3.443039     -1.210787     -0.865078
  H      -2.608752     -1.790827      0.580007
  C      -0.901927      0.458105     -1.742855
  C       0.420905      0.289287     -2.267528
  H      -1.709637      0.873405     -2.337304
  C       1.472477      0.126008     -1.366733
  C       2.682175     -0.137644     -2.078312
  S       0.892823      0.152857     -3.891717
  C       2.515685     -0.145541     -3.429803
  H       1.621113      1.156990     -0.604315
  H       3.647118     -0.254667     -1.606819
  H       3.269475     -0.290244     -4.188780
  H      -0.688818     -3.247484     -0.239789
  H      -0.929758     -2.398569      2.335020
  H       1.472310     -1.490352      3.109864
  O       1.712892      2.311360      0.156744
  O       0.551944      1.015435      1.544167
  C       1.111048      2.114840      1.227934
  C       1.052762      3.216939      2.244817
  H       1.019924      4.188576      1.758208
  H       1.960346      3.185736      2.850310
  H       0.202017      3.101709      2.911134
  H       3.224013     -1.879588      1.119534
  H       1.857366     -2.935081     -0.981333
39
Coordinates from ORCA-job reaction4-IEIP_ts_guess_scan_10-8_orca E -1288.401961041328
  Ir      0.610549     -0.727718      0.435058
  C       0.098079     -2.835217      0.374182
  C      -0.041636     -2.365938      1.726729
  C       2.165547     -2.094747      1.088613
  C       1.444371     -2.671433     -0.016387
  C       1.243501     -1.935006      2.152769
  N      -1.061058      0.123803     -0.515714
  C      -2.337078      0.337314      0.184546
  C      -3.140587      1.514924     -0.348494
  H      -3.972143      1.707978      0.327450
  H      -3.576460      1.321085     -1.329553
  H      -2.544369      2.426130     -0.401846
  C      -3.153128     -0.950392      0.155873
  H      -2.059249      0.553757      1.217271
  H      -4.065108     -0.823729      0.737819
  H      -3.441452     -1.210478     -0.863423
  H      -2.607771     -1.790772      0.581845
  C      -0.900708      0.459965     -1.742266
  C       0.421450      0.290752     -2.267849
  H      -1.708215      0.877650     -2.335237
  C       1.472684      0.121349     -1.367970
  C       2.682232     -0.138980     -2.080809
  S       0.893564      0.163391     -3.892779
  C       2.516013     -0.138322     -3.432440
  H       1.623965      1.153007     -0.605544
  H       3.646964     -0.260266     -1.609923
  H       3.269924     -0.278802     -4.192084
  H      -0.688069     -3.249433     -0.240263
  H      -0.933536     -2.398404      2.333700
  H       1.467675     -1.490461      3.112241
  O       1.709629      2.309402      0.153150
  O       0.551014      1.013585      1.542404
  C       1.109607      2.112985      1.225492
  C       1.049471      3.216544      2.240577
  H       1.011559      4.187079      1.752100
  H       1.958841      3.190077      2.843584
  H       0.200910      3.099306      2.909293
  H       3.222792     -1.882090      1.125634
  H       1.859598     -2.938704     -0.977009
39
Coordinates from ORCA-job reaction4-IEIP_ts_guess_scan_10-8_orca E -1288.401963377180
  Ir      0.610602     -0.728896      0.434642
  C       0.098964     -2.836243      0.374018
  C      -0.044021     -2.365636      1.725938
  C       2.164746     -2.094855      1.093059
  C       1.446281     -2.672577     -0.013172
  C       1.240172     -1.934319      2.154889
  N      -1.060726      0.123405     -0.516096
  C      -2.336245      0.336775      0.185202
  C      -3.140032      1.514658     -0.346848
  H      -3.971019      1.707386      0.329911
  H      -3.576634      1.321297     -1.327670
  H      -2.543907      2.425936     -0.400170
  C      -3.152429     -0.950782      0.156055
  H      -2.057893      0.552965      1.217797
  H      -4.064647     -0.823974      0.737621
  H      -3.440387     -1.210686     -0.863378
  H      -2.607569     -1.791446      0.582066
  C      -0.900611      0.461602     -1.742272
  C       0.421200      0.291556     -2.268359
  H      -1.707865      0.880918     -2.334341
  C       1.472426      0.118456     -1.369341
  C       2.681825     -0.139549     -2.083030
  S       0.893325      0.169529     -3.893850
  C       2.515515     -0.134113     -3.434713
  H       1.625395      1.149523     -0.605694
  H       3.646522     -0.263315     -1.612690
  H       3.269459     -0.272152     -4.194763
  H      -0.685427     -3.251453     -0.241992
  H      -0.937303     -2.397797      2.330895
  H       1.462043     -1.488906      3.114488
  O       1.710075      2.306795      0.151771
  O       0.549291      1.013300      1.541170
  C       1.108456      2.112445      1.223524
  C       1.049916      3.216099      2.238443
  H       1.009449      4.186287      1.749433
  H       1.961207      3.191113      2.838610
  H       0.203468      3.098287      2.909681
  H       3.221844     -1.881894      1.132470
  H       1.863908     -2.940547     -0.972562
39
Coordinates from ORCA-job reaction4-IEIP_ts_guess_scan_10-8_orca E -1288.401961834539
  Ir      0.610773     -0.729599      0.433914
  C       0.101084     -2.837140      0.372622
  C      -0.047014     -2.364832      1.723665
  C       2.164003     -2.093932      1.098857
  C       1.449827     -2.673010     -0.009400
  C       1.235530     -1.932899      2.157219
  N      -1.060774      0.123482     -0.516122
  C      -2.335883      0.335921      0.186331
  C      -3.140158      1.514397     -0.343792
  H      -3.970763      1.705934      0.333792
  H      -3.577196      1.322340     -1.324668
  H      -2.544385      2.425976     -0.396050
  C      -3.151991     -0.951598      0.155193
  H      -2.057208      0.551042      1.219001
  H      -4.064672     -0.825412      0.736194
  H      -3.439221     -1.210322     -0.864738
  H      -2.607667     -1.792954      0.580468
  C      -0.901030      0.463947     -1.741930
  C       0.420390      0.292792     -2.268822
  H      -1.708029      0.885238     -2.332860
  C       1.471957      0.116048     -1.371175
  C       2.680842     -0.140356     -2.085967
  S       0.892090      0.176127     -3.895091
  C       2.513696     -0.131687     -3.437625
  H       1.627170      1.144923     -0.604407
  H       3.645634     -0.266814     -1.616529
  H       3.267247     -0.268866     -4.198214
  H      -0.680548     -3.253963     -0.245788
  H      -0.942297     -2.397165      2.325662
  H       1.453689     -1.486564      3.117232
  O       1.715924      2.302318      0.152404
  O       0.548024      1.013279      1.540020
  C       1.111776      2.110758      1.223044
  C       1.050873      3.215992      2.235859
  H       1.006930      4.184992      1.744673
  H       1.963175      3.195181      2.834615
  H       0.205606      3.097204      2.908333
  H       3.220792     -1.880159      1.141870
  H       1.871177     -2.941426     -0.967050
39
Coordinates from ORCA-job reaction4-IEIP_ts_guess_scan_10-8_orca E -1288.401962271937
  Ir      0.610601     -0.728554      0.433508
  C       0.103476     -2.836794      0.371094
  C      -0.048970     -2.363668      1.721504
  C       2.163588     -2.091138      1.103135
  C       1.453201     -2.671407     -0.006809
  C       1.231825     -1.930685      2.158780
  N      -1.061394      0.123898     -0.515878
  C      -2.336663      0.334967      0.186594
  C      -3.141265      1.513869     -0.342174
  H      -3.972247      1.704011      0.335326
  H      -3.577705      1.323058     -1.323558
  H      -2.545915      2.425815     -0.392765
  C      -3.152289     -0.952811      0.153057
  H      -2.058370      0.548870      1.219616
  H      -4.065377     -0.827947      0.733715
  H      -3.438844     -1.209982     -0.867460
  H      -2.607938     -1.794759      0.577135
  C      -0.902014      0.464772     -1.741606
  C       0.419086      0.293335     -2.269186
  H      -1.709196      0.886377     -2.332074
  C       1.471135      0.115932     -1.372434
  C       2.679381     -0.141196     -2.087845
  S       0.889629      0.175992     -3.895899
  C       2.511351     -0.132193     -3.439438
  H       1.628137      1.142973     -0.603575
  H       3.644415     -0.268098     -1.619052
  H       3.264467     -0.269922     -4.200362
  H      -0.675791     -3.255137     -0.249254
  H      -0.945788     -2.396928      2.321175
  H       1.446644     -1.483846      3.119310
  O       1.721359      2.299435      0.154125
  O       0.547073      1.014101      1.539624
  C       1.114048      2.110262      1.223229
  C       1.054432      3.215585      2.235980
  H       1.008586      4.184409      1.744547
  H       1.968259      3.196021      2.832457
  H       0.210775      3.096350      2.910325
  H       3.220015     -1.876194      1.149041
  H       1.877652     -2.939587     -0.963164
39
Coordinates from ORCA-job reaction4-IEIP_ts_guess_scan_10-8_orca E -1288.401963408103
  Ir      0.610349     -0.726634      0.433361
  C       0.108273     -2.836459      0.368354
  C      -0.051983     -2.363077      1.717952
  C       2.163070     -2.086011      1.110851
  C       1.459643     -2.668240     -0.002230
  C       1.225307     -1.927681      2.161812
  N      -1.062755      0.124240     -0.515147
  C      -2.338651      0.332824      0.186812
  C      -3.142945      1.513503     -0.338566
  H      -3.974816      1.700988      0.338544
  H      -3.578032      1.326220     -1.321223
  H      -2.547651      2.425697     -0.385028
  C      -3.154110     -0.954952      0.147641
  H      -2.061384      0.543209      1.220855
  H      -4.067591     -0.832865      0.728272
  H      -3.440009     -1.207801     -0.874155
  H      -2.609792     -1.798702      0.568194
  C      -0.903961      0.465146     -1.740841
  C       0.416580      0.294219     -2.269664
  H      -1.711737      0.886559     -2.330686
  C       1.469365      0.116038     -1.374151
  C       2.676560     -0.142767     -2.090599
  S       0.885075      0.175148     -3.896993
  C       2.506982     -0.133996     -3.442046
  H       1.629704      1.140786     -0.602489
  H       3.642047     -0.269896     -1.622834
  H       3.259305     -0.272964     -4.203538
  H      -0.666716     -3.257379     -0.255572
  H      -0.951502     -2.398668      2.313445
  H       1.433941     -1.480315      3.123467
  O       1.729874      2.295897      0.156385
  O       0.546988      1.016041      1.539456
  C       1.119007      2.109812      1.223902
  C       1.061550      3.215944      2.235967
  H       1.009726      4.184112      1.743715
  H       1.979144      3.200675      2.826754
  H       0.222125      3.094792      2.915148
  H       3.218793     -1.868860      1.162042
  H       1.889596     -2.935392     -0.956426
39
Coordinates from ORCA-job reaction4-IEIP_ts_guess_scan_10-8_orca E -1288.401965758637
  Ir      0.610171     -0.725372      0.433536
  C       0.113300     -2.836589      0.364910
  C      -0.055290     -2.364256      1.714014
  C       2.162337     -2.081429      1.119003
  C       1.466429     -2.665263      0.002324
  C       1.218104     -1.926123      2.165052
  N      -1.063713      0.123996     -0.514266
  C      -2.339972      0.330789      0.187466
  C      -3.142991      1.514163     -0.333811
  H      -3.975371      1.699546      0.343225
  H      -3.577251      1.331245     -1.317652
  H      -2.546802      2.425967     -0.376044
  C      -3.156105     -0.956404      0.142557
  H      -2.063373      0.536941      1.222557
  H      -4.069295     -0.836946      0.724180
  H      -3.442502     -1.204078     -0.880384
  H      -2.611788     -1.802499      0.558486
  C      -0.905745      0.464434     -1.740095
  C       0.414236      0.294394     -2.270107
  H      -1.714305      0.885172     -2.329424
  C       1.467588      0.115636     -1.375508
  C       2.673994     -0.144308     -2.092914
  S       0.881025      0.174173     -3.897867
  C       2.503161     -0.135631     -3.444219
  H       1.630985      1.139376     -0.602449
  H       3.639888     -0.271431     -1.625987
  H       3.254826     -0.275219     -4.206255
  H      -0.657128     -3.259676     -0.263166
  H      -0.957823     -2.402511      2.304768
  H       1.420059     -1.478596      3.128063
  O       1.735303      2.293892      0.156770
  O       0.547627      1.017648      1.539042
  C       1.122819      2.109615      1.223772
  C       1.067323      3.216871      2.234826
  H       1.006017      4.183975      1.741463
  H       1.990066      3.208407      2.817654
  H       0.234062      3.092171      2.920849
  H       3.217306     -1.862150      1.176085
  H       1.902198     -2.930739     -0.949716
39
Coordinates from ORCA-job reaction4-IEIP_ts_guess_scan_10-8_orca E -1288.401970376338
  Ir      0.610251     -0.724912      0.434137
  C       0.120174     -2.837464      0.359421
  C      -0.059670     -2.367914      1.708260
  C       2.161365     -2.076705      1.129841
  C       1.475688     -2.661959      0.007942
  C       1.208382     -1.926187      2.169297
  N      -1.064499      0.122988     -0.512926
  C      -2.340803      0.328523      0.189088
  C      -3.140946      1.516373     -0.326342
  H      -3.973460      1.699946      0.351012
  H      -3.574815      1.339877     -1.311522
  H      -2.542457      2.426884     -0.363253
  C      -3.159013     -0.957092      0.136908
  H      -2.064572      0.528682      1.225449
  H      -4.071081     -0.840483      0.720852
  H      -3.447341     -1.197409     -0.887259
  H      -2.614946     -1.806784      0.545912
  C      -0.907884      0.462442     -1.739117
  C       0.411476      0.293334     -2.270463
  H      -1.717529      0.881912     -2.327941
  C       1.465501      0.114375     -1.376732
  C       2.671233     -0.146047     -2.095264
  S       0.876601      0.172568     -3.898591
  C       2.499127     -0.137429     -3.446402
  H       1.631935      1.138231     -0.603634
  H       3.637595     -0.272864     -1.629196
  H       3.250099     -0.277029     -4.209121
  H      -0.644072     -3.262739     -0.274679
  H      -0.966465     -2.409749      2.292200
  H       1.401294     -1.478988      3.134314
  O       1.738707      2.292856      0.155078
  O       0.549254      1.019147      1.538215
  C       1.126100      2.109735      1.222463
  C       1.072404      3.218768      2.231771
  H       0.994806      4.183855      1.736597
  H       2.003066      3.222138      2.801870
  H       0.249293      3.087669      2.928682
  H       3.215314     -1.854923      1.195226
  H       1.919257     -2.924436     -0.941351
39
Coordinates from ORCA-job reaction4-IEIP_ts_guess_scan_10-8_orca E -1288.401975861157
  Ir      0.610673     -0.725554      0.434933
  C       0.126321     -2.838636      0.353191
  C      -0.063712     -2.372919      1.702182
  C       2.160363     -2.073968      1.139284
  C       1.484031     -2.659518      0.012184
  C       1.199446     -1.928402      2.172738
  N      -1.064653      0.121691     -0.511426
  C      -2.340561      0.327129      0.191459
  C      -3.137314      1.519524     -0.318635
  H      -3.969466      1.702375      0.359378
  H      -3.571460      1.349042     -1.304746
  H      -2.535980      2.428306     -0.351277
  C      -3.161491     -0.956488      0.133446
  H      -2.064130      0.521933      1.228752
  H      -4.071874     -0.841831      0.720393
  H      -3.452720     -1.190148     -0.891445
  H      -2.617734     -1.809639      0.535754
  C      -0.909485      0.459821     -1.738165
  C       0.409519      0.290958     -2.270431
  H      -1.720057      0.877830     -2.326785
  C       1.464184      0.112805     -1.377186
  C       2.669634     -0.147247     -2.096525
  S       0.873693      0.170079     -3.898689
  C       2.496717     -0.139087     -3.447530
  H       1.631928      1.138085     -0.605967
  H       3.636351     -0.273361     -1.630962
  H       3.247187     -0.278247     -4.210819
  H      -0.632308     -3.265045     -0.286850
  H      -0.974619     -2.417773      2.279459
  H       1.384182     -1.482229      3.139825
  O       1.738351      2.293510      0.151576
  O       0.551550      1.019836      1.537141
  C       1.127345      2.110320      1.220121
  C       1.074192      3.221031      2.227636
  H       0.978357      4.183657      1.730705
  H       2.012768      3.237764      2.784292
  H       0.262108      3.082492      2.935877
  H       3.213408     -1.850458      1.212646
  H       1.934628     -2.918449     -0.934794
39
Coordinates from ORCA-job reaction4-IEIP_ts_guess_scan_10-8_orca E -1288.401980249232
  Ir      0.611327     -0.726792      0.435525
  C       0.129266     -2.839522      0.348947
  C      -0.065643     -2.376730      1.698387
  C       2.159893     -2.074180      1.143500
  C       1.488112     -2.658898      0.013389
  C       1.195135     -1.931487      2.174020
  N      -1.064280      0.120822     -0.510307
  C      -2.339631      0.327166      0.193472
  C      -3.134128      1.522043     -0.314306
  H      -3.965785      1.705360      0.364216
  H      -3.568795      1.354437     -1.300678
  H      -2.530884      2.429609     -0.345400
  C      -3.162626     -0.955010      0.133421
  H      -2.062668      0.519687      1.231010
  H      -4.071723     -0.840569      0.722405
  H      -3.456089     -1.185698     -0.891498
  H      -2.619243     -1.809966      0.532431
  C      -0.909930      0.457977     -1.737486
  C       0.409118      0.288504     -2.269963
  H      -1.720808      0.875181     -2.326234
  C       1.464252      0.111727     -1.376796
  C       2.669780     -0.147473     -2.096400
  S       0.873198      0.167767     -3.898157
  C       2.496643     -0.140012     -3.447348
  H       1.631068      1.138859     -0.608311
  H       3.636641     -0.272833     -1.630909
  H       3.246904     -0.278669     -4.210927
  H      -0.626651     -3.265738     -0.294415
  H      -0.978800     -2.422685      2.272013
  H       1.375991     -1.486595      3.142425
  O       1.735138      2.295209      0.148145
  O       0.553555      1.019515      1.536378
  C       1.126441      2.111069      1.217927
  C       1.072452      3.222523      2.224518
  H       0.964314      4.183430      1.726668
  H       2.015697      3.248314      2.772812
  H       0.267472      3.078623      2.939721
  H       3.212571     -1.850420      1.221206
  H       1.942090     -2.915355     -0.932660
39
Coordinates from ORCA-job reaction4-IEIP_ts_guess_scan_10-8_orca E -1288.401981993398
  Ir      0.611857     -0.727649      0.435695
  C       0.129406     -2.839852      0.347518
  C      -0.065937     -2.377984      1.697274
  C       2.159855     -2.075612      1.143677
  C       1.488497     -2.659445      0.012856
  C       1.194678     -1.933396      2.173864
  N      -1.063762      0.120744     -0.509796
  C      -2.338778      0.327864      0.194404
  C      -3.132862      1.522968     -0.313539
  H      -3.964289      1.706849      0.365129
  H      -3.567802      1.355370     -1.299789
  H      -2.529285      2.430307     -0.344957
  C      -3.162397     -0.953920      0.134912
  H      -2.061406      0.520639      1.231766
  H      -4.071140     -0.838867      0.724331
  H      -3.456507     -1.184770     -0.889775
  H      -2.619261     -1.809052      0.533863
  C      -0.909527      0.457717     -1.737078
  C       0.409627      0.287435     -2.269461
  H      -1.720209      0.875085     -2.325944
  C       1.464984      0.111351     -1.376309
  C       2.670581     -0.147317     -2.095957
  S       0.873806      0.166915     -3.897630
  C       2.497429     -0.140163     -3.446893
  H       1.630324      1.139460     -0.609451
  H       3.637456     -0.272459     -1.630435
  H       3.247612     -0.278634     -4.210578
  H      -0.626257     -3.265485     -0.296528
  H      -0.979561     -2.423554      2.270194
  H       1.375268     -1.489340      3.142698
  O       1.732523      2.296342      0.146448
  O       0.554536      1.018878      1.536107
  C       1.125177      2.111487      1.216792
  C       1.070012      3.222899      2.223303
  H       0.957604      4.183267      1.725310
  H       2.014516      3.251887      2.769245
  H       0.267184      3.076788      2.940453
  H       3.212589     -1.852418      1.222254
  H       1.942829     -2.915144     -0.933232
