39
Coordinates from ORCA-job reaction4-IEIP_ts_guess_scan_0-4_orca E -1288.395797938601
  Ir      0.574650     -0.733307      0.479284
  C       0.021785     -2.812000      0.338546
  C       0.112643     -2.373076      1.711536
  C       2.190563     -2.146741      0.751282
  C       1.282113     -2.642555     -0.258832
  C       1.483606     -2.023047      1.958773
  N      -1.040204      0.177113     -0.510429
  C      -2.312843      0.520789      0.143303
  C      -3.131270      1.548658     -0.620578
  H      -3.965635      1.866646      0.002948
  H      -3.564462      1.149449     -1.539168
  H      -2.550543      2.439547     -0.861912
  C      -3.111307     -0.749877      0.406634
  H      -2.022033      0.953918      1.101940
  H      -4.026552     -0.500901      0.941451
  H      -3.394145     -1.240902     -0.525496
  H      -2.562142     -1.460532      1.022807
  C      -0.822949      0.379112     -1.751169
  C       0.531277      0.146981     -2.212726
  H      -1.594574      0.741680     -2.424563
  C       1.644059      0.572493     -1.498404
  C       2.841135      0.142988     -2.139556
  S       0.940537     -0.700950     -3.641324
  C       2.614363     -0.544049     -3.290612
  H       1.550472      1.421920     -0.702265
  H       3.831839      0.383222     -1.782051
  H       3.343757     -0.952551     -3.973663
  H      -0.871630     -3.167851     -0.154103
  H      -0.672400     -2.412684      2.452670
  H       1.877266     -1.642683      2.890392
  O       1.270188      2.446392      0.274329
  O       0.541576      0.886733      1.693842
  C       0.890623      2.095599      1.386085
  C       0.829128      3.066009      2.532793
  H       0.773045      4.087585      2.166807
  H       1.739637      2.973750      3.128088
  H      -0.009889      2.860205      3.194346
  H       3.233219     -1.909711      0.598861
  H       1.534469     -2.848180     -1.289125
39
Coordinates from ORCA-job reaction4-IEIP_ts_guess_scan_0-4_orca E -1288.395796418512
  Ir      0.573286     -0.734619      0.481226
  C       0.017900     -2.812996      0.345439
  C       0.109583     -2.371121      1.717430
  C       2.187578     -2.149353      0.756104
  C       1.278326     -2.646356     -0.252692
  C       1.481007     -2.022127      1.963504
  N      -1.040310      0.174914     -0.510740
  C      -2.313952      0.517261      0.141818
  C      -3.132120      1.545303     -0.622129
  H      -3.967352      1.862335      0.000730
  H      -3.564078      1.146610     -1.541516
  H      -2.551626      2.436702     -0.862140
  C      -3.112046     -0.754046      0.403162
  H      -2.024579      0.949757      1.101180
  H      -4.028095     -0.506039      0.937063
  H      -3.393453     -1.244470     -0.529715
  H      -2.563225     -1.464890      1.019415
  C      -0.822129      0.378657     -1.751245
  C       0.532164      0.148304     -2.214140
  H      -1.593771      0.742510     -2.423940
  C       1.645540      0.567724     -1.497200
  C       2.841999      0.144653     -2.143939
  S       0.940144     -0.686530     -3.650943
  C       2.614288     -0.531147     -3.301442
  H       1.551888      1.410890     -0.689205
  H       3.833065      0.381484     -1.785144
  H       3.343041     -0.932753     -3.989275
  H      -0.876059     -3.168887     -0.146196
  H      -0.675313     -2.408191      2.458844
  H       1.875357     -1.640199      2.894191
  O       1.279287      2.449241      0.274824
  O       0.542963      0.890241      1.692491
  C       0.896186      2.098107      1.385481
  C       0.834510      3.068391      2.532042
  H       0.781600      4.090183      2.166176
  H       1.743522      2.973838      3.129258
  H      -0.006419      2.864296      3.191645
  H       3.230475     -1.913905      0.602906
  H       1.530189     -2.854582     -1.282587
39
Coordinates from ORCA-job reaction4-IEIP_ts_guess_scan_0-4_orca E -1288.395721481567
  Ir      0.571299     -0.729685      0.479699
  C       0.021549     -2.809376      0.341827
  C       0.110972     -2.368594      1.714293
  C       2.189153     -2.140372      0.754719
  C       1.282042     -2.638791     -0.255282
  C       1.481256     -2.016097      1.961692
  N      -1.044082      0.174875     -0.513334
  C      -2.318153      0.516885      0.138770
  C      -3.138689      1.541013     -0.627938
  H      -3.974094      1.858549     -0.005557
  H      -3.570533      1.138619     -1.545752
  H      -2.559979      2.432678     -0.871245
  C      -3.113968     -0.754918      0.404608
  H      -2.029225      0.953013      1.096643
  H      -4.030317     -0.506783      0.937952
  H      -3.394755     -1.248932     -0.526556
  H      -2.563721     -1.462736      1.023044
  C      -0.827032      0.373452     -1.755008
  C       0.527293      0.143212     -2.217351
  H      -1.599879      0.732315     -2.429006
  C       1.639583      0.569414     -1.503004
  C       2.836474      0.142813     -2.146729
  S       0.936316     -0.698134     -3.650211
  C       2.609974     -0.540528     -3.300100
  H       1.544050      1.425726     -0.700525
  H       3.827277      0.383171     -1.789517
  H       3.339396     -0.945548     -3.985237
  H      -0.871084     -3.167151     -0.150845
  H      -0.674384     -2.408522      2.455059
  H       1.873894     -1.634064      2.893055
  O       1.334666      2.445900      0.298094
  O       0.536159      0.895909      1.692297
  C       0.915831      2.098411      1.397320
  C       0.840352      3.067469      2.543745
  H       0.813224      4.090667      2.178976
  H       1.732125      2.957163      3.163816
  H      -0.020400      2.875526      3.180974
  H       3.231538     -1.902017      0.602544
  H       1.535243     -2.845345     -1.285190
39
Coordinates from ORCA-job reaction4-IEIP_ts_guess_scan_0-4_orca E -1288.395732842323
  Ir      0.575120     -0.732203      0.478734
  C       0.023123     -2.810526      0.333393
  C       0.114541     -2.375322      1.707474
  C       2.191907     -2.145373      0.746349
  C       1.283113     -2.638694     -0.264648
  C       1.485491     -2.025181      1.954635
  N      -1.038928      0.178841     -0.509038
  C      -2.312261      0.521299      0.144390
  C      -3.130589      1.550193     -0.618336
  H      -3.965142      1.867315      0.005395
  H      -3.563534      1.152261     -1.537568
  H      -2.549920      2.441456     -0.858430
  C      -3.111155     -0.749538      0.405578
  H      -2.022265      0.953255      1.103855
  H      -4.026978     -0.501122      0.939694
  H      -3.393005     -1.239537     -0.527386
  H      -2.562719     -1.460879      1.021551
  C      -0.820764      0.380363     -1.749969
  C       0.533189      0.146758     -2.210760
  H      -1.592585      0.740718     -2.424340
  C       1.645994      0.574249     -1.497731
  C       2.841796      0.134224     -2.134165
  S       0.941063     -0.706465     -3.636947
  C       2.614384     -0.558510     -3.281739
  H       1.555721      1.444306     -0.707535
  H       3.833111      0.372463     -1.776923
  H       3.343314     -0.974002     -3.961083
  H      -0.870451     -3.165374     -0.159683
  H      -0.670010     -2.417401      2.448970
  H       1.879607     -1.647254      2.887045
  O       1.238694      2.458107      0.268958
  O       0.543533      0.888561      1.694865
  C       0.879061      2.100121      1.385755
  C       0.828420      3.067410      2.535026
  H       0.757917      4.089375      2.172622
  H       1.749318      2.981201      3.115060
  H       0.002059      2.852753      3.209451
  H       3.234344     -1.907401      0.593928
  H       1.534856     -2.841257     -1.295704
39
Coordinates from ORCA-job reaction4-IEIP_ts_guess_scan_0-4_orca E -1288.395761202922
  Ir      0.574248     -0.736336      0.483339
  C       0.018227     -2.814136      0.346593
  C       0.108903     -2.372954      1.718774
  C       2.187828     -2.151568      0.759481
  C       1.279232     -2.647700     -0.250333
  C       1.480235     -2.024437      1.966199
  N      -1.039015      0.174721     -0.509897
  C      -2.312085      0.518288      0.142882
  C      -3.128879      1.547741     -0.620624
  H      -3.963653      1.865633      0.002396
  H      -3.561391      1.150011     -1.540182
  H      -2.547185      2.438455     -0.860270
  C      -3.111769     -0.752141      0.403634
  H      -2.022021      0.950017      1.102379
  H      -4.027551     -0.503129      0.937497
  H      -3.393706     -1.241874     -0.529455
  H      -2.563970     -1.463916      1.019743
  C      -0.821346      0.379021     -1.750286
  C       0.532620      0.149748     -2.213748
  H      -1.593262      0.743502     -2.422341
  C       1.646166      0.566014     -1.495265
  C       2.842678      0.147284     -2.144448
  S       0.940351     -0.685670     -3.650201
  C       2.614755     -0.524872     -3.304018
  H       1.553535      1.403729     -0.689110
  H       3.833729      0.384767     -1.786017
  H       3.343467     -0.922734     -3.994017
  H      -0.875427     -3.169450     -0.146015
  H      -0.676673     -2.410048      2.459471
  H       1.873886     -1.642931      2.897356
  O       1.265592      2.444206      0.268143
  O       0.542931      0.885944      1.692381
  C       0.890138      2.094207      1.381801
  C       0.831973      3.066693      2.527021
  H       0.773216      4.087570      2.159548
  H       1.744946      2.976578      3.118881
  H      -0.004203      2.860973      3.192226
  H       3.230944     -1.916420      0.607312
  H       1.531905     -2.855597     -1.280089
39
Coordinates from ORCA-job reaction4-IEIP_ts_guess_scan_0-4_orca E -1288.395808469483
  Ir      0.573083     -0.732777      0.481125
  C       0.019957     -2.811302      0.342624
  C       0.110569     -2.371384      1.715241
  C       2.188802     -2.146039      0.755131
  C       1.280508     -2.642424     -0.254826
  C       1.481501     -2.021146      1.962353
  N      -1.041021      0.175371     -0.511162
  C      -2.314860      0.517142      0.141415
  C      -3.133630      1.544798     -0.622476
  H      -3.968791      1.861638      0.000577
  H      -3.565732      1.145845     -1.541678
  H      -2.553536      2.436362     -0.862839
  C      -3.112531     -0.754388      0.402962
  H      -2.025696      0.949943      1.100715
  H      -4.028831     -0.506581      0.936526
  H      -3.393483     -1.245221     -0.529838
  H      -2.563631     -1.464832      1.019605
  C      -0.823509      0.377581     -1.752105
  C       0.530550      0.148202     -2.215137
  H      -1.596049      0.739060     -2.425049
  C       1.643544      0.568981     -1.498657
  C       2.839960      0.141773     -2.142603
  S       0.938763     -0.688041     -3.651119
  C       2.612537     -0.538032     -3.297856
  H       1.550852      1.419611     -0.695730
  H       3.831083      0.377694     -1.783324
  H       3.341501     -0.943662     -3.983091
  H      -0.873419     -3.167352     -0.149955
  H      -0.674616     -2.410421      2.456241
  H       1.875063     -1.640179      2.893764
  O       1.287582      2.449981      0.279392
  O       0.541034      0.891927      1.692447
  C       0.898770      2.098672      1.388332
  C       0.836055      3.068525      2.535123
  H       0.786752      4.090676      2.169803
  H       1.743071      2.971344      3.134964
  H      -0.007352      2.865963      3.192031
  H       3.231517     -1.909255      0.602738
  H       1.533001     -2.848862     -1.284925
39
Coordinates from ORCA-job reaction4-IEIP_ts_guess_scan_0-4_orca E -1288.395809484005
  Ir      0.573329     -0.733262      0.481917
  C       0.020216     -2.811558      0.341546
  C       0.110250     -2.372814      1.714557
  C       2.188910     -2.146721      0.755522
  C       1.281026     -2.642177     -0.255260
  C       1.481084     -2.022789      1.962537
  N      -1.040119      0.175632     -0.510430
  C      -2.313766      0.518340      0.142068
  C      -3.131871      1.546412     -0.621986
  H      -3.966733      1.864006      0.001085
  H      -3.564367      1.147581     -1.541053
  H      -2.551158      2.437499     -0.862618
  C      -3.112353     -0.752557      0.403919
  H      -2.024290      0.951181      1.101266
  H      -4.028529     -0.503958      0.937331
  H      -3.393564     -1.243467     -0.528763
  H      -2.564017     -1.463203      1.020818
  C      -0.822589      0.376665     -1.751556
  C       0.531296      0.146124     -2.214095
  H      -1.595151      0.737151     -2.425020
  C       1.644264      0.567843     -1.498039
  C       2.840631      0.142082     -2.142992
  S       0.939244     -0.697112     -3.646087
  C       2.613223     -0.537347     -3.298500
  H       1.551768      1.421971     -0.698019
  H       3.831712      0.381435     -1.785881
  H       3.342193     -0.940128     -3.985405
  H      -0.872961     -3.167141     -0.151729
  H      -0.675258     -2.412453      2.455181
  H       1.874267     -1.642628      2.894436
  O       1.278342      2.449584      0.277218
  O       0.540836      0.890405      1.693435
  C       0.894636      2.097789      1.387830
  C       0.834253      3.067901      2.534515
  H       0.780911      4.089800      2.169051
  H       1.743992      2.973176      3.130619
  H      -0.005913      2.863471      3.194984
  H       3.231693     -1.909828      0.603777
  H       1.533934     -2.847716     -1.285440
39
Coordinates from ORCA-job reaction4-IEIP_ts_guess_scan_0-4_orca E -1288.395812995813
  Ir      0.573511     -0.733258      0.481921
  C       0.020471     -2.811569      0.341817
  C       0.110590     -2.372695      1.714774
  C       2.189176     -2.146626      0.755595
  C       1.281228     -2.642205     -0.255073
  C       1.481429     -2.022590      1.962634
  N      -1.040188      0.175551     -0.510478
  C      -2.313801      0.517926      0.142212
  C      -3.131849      1.546406     -0.621348
  H      -3.966692      1.863741      0.001877
  H      -3.564364      1.148047     -1.540614
  H      -2.551079      2.437572     -0.861546
  C      -3.112378     -0.753120      0.403367
  H      -2.024315      0.950264      1.101628
  H      -4.028568     -0.504800      0.936878
  H      -3.393561     -1.243545     -0.529581
  H      -2.564062     -1.464090      1.019916
  C      -0.822831      0.377427     -1.751496
  C       0.531031      0.147720     -2.214543
  H      -1.595520      0.738510     -2.424494
  C       1.644130      0.568188     -1.497981
  C       2.840444      0.141499     -2.142372
  S       0.938982     -0.691097     -3.649089
  C       2.612867     -0.537874     -3.297877
  H       1.552041      1.419836     -0.696608
  H       3.831609      0.378355     -1.783827
  H       3.341764     -0.942443     -3.983804
  H      -0.872726     -3.167230     -0.151369
  H      -0.674867     -2.412296      2.455454
  H       1.874665     -1.642335      2.894472
  O       1.278176      2.449450      0.276392
  O       0.541003      0.890442      1.692999
  C       0.894635      2.097812      1.387097
  C       0.834070      3.068194      2.533589
  H       0.780349      4.089981      2.167875
  H       1.743924      2.973922      3.129590
  H      -0.005936      2.863673      3.194245
  H       3.231942     -1.909714      0.603757
  H       1.534071     -2.847838     -1.285251
39
Coordinates from ORCA-job reaction4-IEIP_ts_guess_scan_0-4_orca E -1288.395813291547
  Ir      0.573305     -0.733194      0.482153
  C       0.020200     -2.811495      0.342134
  C       0.110274     -2.372571      1.715077
  C       2.188913     -2.146616      0.755985
  C       1.280986     -2.642198     -0.254706
  C       1.481112     -2.022499      1.962987
  N      -1.040287      0.175371     -0.510536
  C      -2.314038      0.517505      0.142046
  C      -3.132110      1.546055     -0.621410
  H      -3.967007      1.863248      0.001816
  H      -3.564559      1.147826     -1.540763
  H      -2.551373      2.437288     -0.861442
  C      -3.112508     -0.753677      0.402857
  H      -2.024740      0.949700      1.101578
  H      -4.028816     -0.505563      0.936264
  H      -3.393480     -1.243977     -0.530219
  H      -2.564201     -1.464692      1.019369
  C      -0.822986      0.377095     -1.751610
  C       0.530857      0.147669     -2.214761
  H      -1.595825      0.737843     -2.424613
  C       1.643900      0.567896     -1.497996
  C       2.840267      0.141683     -2.142578
  S       0.938912     -0.690588     -3.649603
  C       2.612776     -0.537067     -3.298478
  H       1.551734      1.419441     -0.696314
  H       3.831405      0.378531     -1.783956
  H       3.341727     -0.941093     -3.984670
  H      -0.872991     -3.167132     -0.151084
  H      -0.675219     -2.412131      2.455723
  H       1.874331     -1.642265      2.894841
  O       1.280801      2.449472      0.277066
  O       0.540910      0.891087      1.693015
  C       0.895807      2.098158      1.387381
  C       0.834954      3.068663      2.533745
  H       0.782127      4.090451      2.167905
  H       1.744316      2.973894      3.130417
  H      -0.005658      2.864698      3.193798
  H       3.231697     -1.909753      0.604187
  H       1.533860     -2.847873     -1.284868
