39
Generated by autodE on: 2023-08-15. E = -1288.402047 Ha
Ir    0.61580  -0.74214   0.39897
C     0.17308  -2.85979   0.32660
C    -0.11194  -2.42913   1.67281
C     2.12986  -2.05005   1.24906
C     1.55401  -2.65947   0.08763
C     1.08910  -1.94701   2.22327
N    -1.08192   0.10330  -0.50684
C    -2.35098   0.27856   0.21423
C    -3.13881   1.50645  -0.21942
H    -3.96952   1.65274   0.46908
H    -3.57343   1.40354  -1.21464
H    -2.52945   2.41017  -0.19454
C    -3.18194  -0.99340   0.08602
H    -2.06766   0.41082   1.25960
H    -4.08161  -0.91373   0.69496
H    -3.49130  -1.15724  -0.94702
H    -2.63543  -1.87432   0.41905
C    -0.93755   0.48757  -1.72271
C     0.37724   0.31601  -2.25767
H    -1.74698   0.93738  -2.28808
C     1.38620  -0.01369  -1.34720
C     2.61347  -0.21881  -2.05670
S     0.90456   0.39997  -3.86732
C     2.49591  -0.02326  -3.39963
H     1.62834   1.17396  -0.70946
H     3.55664  -0.44500  -1.58032
H     3.27355  -0.08771  -4.14555
H    -0.52419  -3.31710  -0.35998
H    -1.06216  -2.49089   2.18055
H     1.19438  -1.50124   3.20219
O     1.74638   2.31534   0.01521
O     0.61485   1.04836   1.45489
C     1.17114   2.13096   1.11342
C     1.16245   3.25700   2.10362
H     1.04579   4.21331   1.59903
H     2.12357   3.27942   2.62032
H     0.38038   3.12695   2.84610
H     3.17162  -1.81657   1.40515
H     2.07593  -2.91207  -0.82396
