39
Coordinates from ORCA-job reaction4-IEIP_ts_guess_scan_1-5_orca E -1288.395960847924
  Ir      0.573938     -0.728381      0.467224
  C       0.023888     -2.807537      0.327993
  C       0.122059     -2.370292      1.700955
  C       2.194034     -2.139066      0.728643
  C       1.280495     -2.635016     -0.276829
  C       1.493842     -2.017931      1.940422
  N      -1.047454      0.178187     -0.513463
  C      -2.319572      0.519689      0.142638
  C      -3.140488      1.547470     -0.618805
  H      -3.973818      1.864308      0.006701
  H      -3.575293      1.148677     -1.536805
  H      -2.561016      2.439010     -0.860762
  C      -3.116469     -0.751935      0.406110
  H      -2.027826      0.952365      1.101215
  H      -4.031421     -0.504256      0.942049
  H      -3.399775     -1.242704     -0.526017
  H      -2.565943     -1.462403      1.021279
  C      -0.829197      0.377618     -1.753007
  C       0.527268      0.141780     -2.202139
  H      -1.597693      0.738774     -2.430779
  C       1.632247      0.559366     -1.472021
  C       2.835069      0.127780     -2.101130
  S       0.949296     -0.701118     -3.630157
  C       2.619414     -0.552458     -3.258652
  H       1.532943      1.412469     -0.673063
  H       3.822621      0.361789     -1.730722
  H       3.355446     -0.960386     -3.935025
  H      -0.871833     -3.164213     -0.159891
  H      -0.658539     -2.412351      2.446659
  H       1.892391     -1.638200      2.870233
  O       1.273731      2.458708      0.264492
  O       0.546299      0.894266      1.680684
  C       0.896504      2.103049      1.376038
  C       0.840500      3.070103      2.525581
  H       0.782962      4.092821      2.163019
  H       1.753812      2.975774      3.116304
  H       0.004493      2.862237      3.190293
  H       3.235378     -1.899998      0.570388
  H       1.527078     -2.838806     -1.308912
39
Coordinates from ORCA-job reaction4-IEIP_ts_guess_scan_1-5_orca E -1288.394809305868
  Ir      0.576649     -0.716579      0.458291
  C       0.040223     -2.799603      0.306640
  C       0.129575     -2.370397      1.682528
  C       2.204160     -2.119394      0.720586
  C       1.298330     -2.615841     -0.291479
  C       1.497624     -2.009324      1.929702
  N      -1.055494      0.183093     -0.519917
  C      -2.324494      0.527999      0.139246
  C      -3.151917      1.544377     -0.630340
  H      -3.983402      1.866119     -0.004879
  H      -3.589465      1.133491     -1.541711
  H      -2.576193      2.434706     -0.885389
  C      -3.115693     -0.743080      0.421520
  H      -2.028744      0.972428      1.091208
  H      -4.028366     -0.492217      0.959852
  H      -3.402710     -1.245220     -0.503373
  H      -2.559235     -1.444731      1.041513
  C      -0.844646      0.368761     -1.763909
  C       0.512010      0.131951     -2.212123
  H      -1.617254      0.717511     -2.443491
  C       1.612524      0.575912     -1.489890
  C       2.818386      0.125243     -2.100877
  S       0.940553     -0.754513     -3.611074
  C       2.608634     -0.594955     -3.234835
  H       1.510865      1.483747     -0.743717
  H       3.804206      0.378401     -1.738650
  H       3.348219     -1.021459     -3.895592
  H      -0.850891     -3.159531     -0.187218
  H      -0.653655     -2.422831      2.424731
  H       1.889541     -1.632261      2.863395
  O       1.393153      2.428223      0.321611
  O       0.525078      0.895582      1.686565
  C       0.932247      2.091119      1.407848
  C       0.838654      3.061951      2.551617
  H       0.839950      4.085371      2.186385
  H       1.709356      2.936783      3.198268
  H      -0.044089      2.884869      3.162524
  H       3.244720     -1.873382      0.568490
  H       1.550965     -2.813129     -1.323313
39
Coordinates from ORCA-job reaction4-IEIP_ts_guess_scan_1-5_orca E -1288.396020659921
  Ir      0.579946     -0.731368      0.467572
  C       0.026038     -2.811369      0.331867
  C       0.120186     -2.373930      1.704793
  C       2.195926     -2.145643      0.738665
  C       1.285148     -2.641805     -0.269018
  C       1.491201     -2.021741      1.947739
  N      -1.044608      0.178529     -0.513437
  C      -2.314737      0.520855      0.144159
  C      -3.134557      1.548885     -0.618041
  H      -3.967808      1.867014      0.006913
  H      -3.569181      1.149710     -1.536008
  H      -2.554213      2.439724     -0.860566
  C      -3.111800     -0.750314      0.408806
  H      -2.021194      0.953377      1.102271
  H      -4.025675     -0.502051      0.946299
  H      -3.396987     -1.240838     -0.522861
  H      -2.560382     -1.460991      1.023022
  C      -0.828139      0.385658     -1.754357
  C       0.527863      0.152697     -2.211539
  H      -1.598353      0.752969     -2.426832
  C       1.636200      0.553490     -1.474707
  C       2.835375      0.117192     -2.109752
  S       0.943594     -0.681108     -3.646306
  C       2.614724     -0.550628     -3.272773
  H       1.551417      1.430405     -0.686783
  H       3.824972      0.343974     -1.740430
  H       3.347594     -0.955575     -3.954209
  H      -0.868446     -3.167552     -0.158594
  H      -0.662439     -2.415491      2.448277
  H       1.887096     -1.641476      2.878443
  O       1.254584      2.454517      0.263953
  O       0.540808      0.892044      1.685202
  C       0.886080      2.100478      1.379788
  C       0.829150      3.071034      2.526101
  H       0.764263      4.092296      2.160570
  H       1.745273      2.983890      3.113488
  H      -0.003063      2.860323      3.194496
  H       3.238324     -1.909358      0.584106
  H       1.535190     -2.848632     -1.299577
39
Coordinates from ORCA-job reaction4-IEIP_ts_guess_scan_1-5_orca E -1288.394532815458
  Ir      0.563739     -0.734238      0.478506
  C       0.002382     -2.813307      0.378642
  C       0.095327     -2.351682      1.743409
  C       2.173782     -2.148700      0.777701
  C       1.263211     -2.659529     -0.222607
  C       1.466957     -2.000535      1.982836
  N      -1.053455      0.159200     -0.522795
  C      -2.328883      0.496063      0.128792
  C      -3.153302      1.517683     -0.637182
  H      -3.990350      1.831267     -0.014999
  H      -3.583003      1.114372     -1.555618
  H      -2.578136      2.411965     -0.879314
  C      -3.119781     -0.779032      0.393506
  H      -2.041767      0.932254      1.087141
  H      -4.037006     -0.534900      0.927212
  H      -3.398781     -1.273249     -0.538084
  H      -2.566510     -1.485147      1.011168
  C      -0.836956      0.366694     -1.762895
  C       0.519644      0.154252     -2.226806
  H      -1.609595      0.735038     -2.431779
  C       1.625324      0.529448     -1.474725
  C       2.829161      0.160638     -2.142035
  S       0.941059     -0.594157     -3.705916
  C       2.613005     -0.437425     -3.343652
  H       1.520078      1.322523     -0.611914
  H       3.816582      0.378117     -1.761286
  H       3.348418     -0.787310     -4.052438
  H      -0.892543     -3.174584     -0.107300
  H      -0.689126     -2.376451      2.485722
  H       1.862313     -1.604926      2.907364
  O       1.476836      2.413732      0.309068
  O       0.531333      0.911664      1.666970
  C       0.976727      2.093640      1.383887
  C       0.883230      3.075633      2.517853
  H       0.921303      4.095676      2.145319
  H       1.734664      2.931794      3.185936
  H      -0.018303      2.927470      3.108778
  H       3.217440     -1.919049      0.621134
  H       1.514353     -2.885709     -1.248858
39
Coordinates from ORCA-job reaction4-IEIP_ts_guess_scan_1-5_orca E -1288.396079653319
  Ir      0.573259     -0.726876      0.470489
  C       0.021248     -2.807216      0.344088
  C       0.111915     -2.363231      1.714868
  C       2.189593     -2.137984      0.751902
  C       1.281510     -2.639675     -0.255278
  C       1.481861     -2.008580      1.958796
  N      -1.047248      0.175010     -0.515681
  C      -2.321203      0.510685      0.139257
  C      -3.144973      1.536988     -0.621177
  H      -3.980843      1.849024      0.003363
  H      -3.576276      1.138452     -1.540948
  H      -2.568859      2.431564     -0.859984
  C      -3.114007     -0.764177      0.399320
  H      -2.032006      0.942199      1.099148
  H      -4.030149     -0.520760      0.935218
  H      -3.395054     -1.253777     -0.534093
  H      -2.561259     -1.473950      1.013199
  C      -0.829589      0.384921     -1.755581
  C       0.525178      0.156020     -2.216790
  H      -1.601217      0.750399     -2.427192
  C       1.635707      0.544582     -1.477221
  C       2.833323      0.119511     -2.121788
  S       0.937422     -0.650251     -3.667709
  C       2.609632     -0.526723     -3.296442
  H       1.554457      1.402968     -0.670156
  H       3.823760      0.336123     -1.748523
  H       3.340563     -0.921592     -3.985846
  H      -0.871965     -3.166220     -0.146635
  H      -0.672344     -2.401596      2.456774
  H       1.875360     -1.623206      2.888410
  O       1.334699      2.444175      0.282951
  O       0.530017      0.901672      1.679313
  C       0.916533      2.100280      1.384700
  C       0.848704      3.072684      2.528734
  H       0.824046      4.095130      2.161715
  H       1.742190      2.960595      3.146005
  H      -0.010665      2.885172      3.169149
  H       3.232238     -1.901750      0.598669
  H       1.533810     -2.851400     -1.284285
39
Coordinates from ORCA-job reaction4-IEIP_ts_guess_scan_1-5_orca E -1288.396095599755
  Ir      0.577038     -0.731192      0.470243
  C       0.019481     -2.810292      0.345639
  C       0.111000     -2.365843      1.716113
  C       2.189576     -2.146814      0.753442
  C       1.280303     -2.646695     -0.253652
  C       1.481792     -2.014452      1.959954
  N      -1.044829      0.174591     -0.516867
  C      -2.317736      0.512505      0.138939
  C      -3.140045      1.540262     -0.621061
  H      -3.975072      1.853659      0.003918
  H      -3.572457      1.142604     -1.540690
  H      -2.562576      2.433917     -0.860029
  C      -3.112962     -0.760788      0.399381
  H      -2.027190      0.943652      1.098593
  H      -4.028434     -0.515409      0.935499
  H      -3.395270     -1.249944     -0.533878
  H      -2.561511     -1.471590      1.013180
  C      -0.829596      0.381237     -1.757824
  C       0.524974      0.155163     -2.218308
  H      -1.602326      0.744624     -2.429395
  C       1.632124      0.547685     -1.476612
  C       2.832497      0.127188     -2.118817
  S       0.941757     -0.660819     -3.662166
  C       2.613183     -0.522414     -3.292647
  H       1.546232      1.415006     -0.678392
  H       3.821420      0.351143     -1.745880
  H       3.346737     -0.913606     -3.981359
  H      -0.874570     -3.167187     -0.145115
  H      -0.673461     -2.401843      2.457919
  H       1.876133     -1.629490      2.889386
  O       1.299996      2.452852      0.271902
  O       0.536491      0.898742      1.679790
  C       0.904454      2.101795      1.380013
  C       0.849317      3.071038      2.527318
  H       0.807270      4.094002      2.163349
  H       1.755807      2.966508      3.126726
  H       0.004589      2.873429      3.183985
  H       3.232998     -1.913873      0.600529
  H       1.532232     -2.860160     -1.282388
39
Coordinates from ORCA-job reaction4-IEIP_ts_guess_scan_1-5_orca E -1288.396104337142
  Ir      0.577371     -0.730759      0.469990
  C       0.020383     -2.809624      0.344608
  C       0.111506     -2.365779      1.715215
  C       2.190247     -2.145887      0.752931
  C       1.281304     -2.645582     -0.254497
  C       1.482101     -2.014070      1.959347
  N      -1.044005      0.174053     -0.516491
  C      -2.316575      0.512047      0.140048
  C      -3.138445      1.541214     -0.618535
  H      -3.972906      1.854626      0.007199
  H      -3.571676      1.144894     -1.538351
  H      -2.560381      2.434654     -0.856866
  C      -3.112794     -0.760858      0.399482
  H      -2.025474      0.942101      1.100014
  H      -4.028001     -0.515215      0.935930
  H      -3.395608     -1.248964     -0.534176
  H      -2.561880     -1.472676      1.012582
  C      -0.829712      0.380596     -1.757560
  C       0.524576      0.155862     -2.219395
  H      -1.603167      0.743846     -2.428381
  C       1.631794      0.547624     -1.477549
  C       2.832248      0.124978     -2.118062
  S       0.941815     -0.651337     -3.667835
  C       2.612832     -0.525227     -3.291622
  H       1.545655      1.413445     -0.677701
  H       3.821154      0.344342     -1.742390
  H       3.346264     -0.920178     -3.978326
  H      -0.873512     -3.166410     -0.146521
  H      -0.673129     -2.402098      2.456809
  H       1.876160     -1.629253      2.888960
  O       1.300278      2.452619      0.271365
  O       0.536810      0.898351      1.679301
  C       0.905218      2.101157      1.379613
  C       0.846218      3.071587      2.525763
  H       0.802354      4.094079      2.160693
  H       1.752170      2.969683      3.126444
  H       0.001075      2.872777      3.181553
  H       3.233686     -1.912738      0.600413
  H       1.533415     -2.858689     -1.283261
39
Coordinates from ORCA-job reaction4-IEIP_ts_guess_scan_1-5_orca E -1288.396109268331
  Ir      0.576361     -0.730142      0.471644
  C       0.020552     -2.808962      0.344990
  C       0.110299     -2.365686      1.715828
  C       2.189762     -2.144368      0.755286
  C       1.281929     -2.644112     -0.253077
  C       1.480475     -2.013356      1.961179
  N      -1.043634      0.173261     -0.515465
  C      -2.316502      0.511191      0.140649
  C      -3.137521      1.541425     -0.617460
  H      -3.971926      1.854957      0.008299
  H      -3.570850      1.146097     -1.537657
  H      -2.558766      2.434623     -0.855027
  C      -3.113513     -0.761506      0.398719
  H      -2.025753      0.940406      1.101080
  H      -4.028943     -0.515806      0.934768
  H      -3.395973     -1.248820     -0.535463
  H      -2.563350     -1.474061      1.011659
  C      -0.829214      0.379364     -1.756593
  C       0.524762      0.153841     -2.219391
  H      -1.603064      0.741690     -2.427453
  C       1.632890      0.543854     -1.477628
  C       2.832849      0.124020     -2.120878
  S       0.940849     -0.651168     -3.669303
  C       2.612404     -0.521445     -3.296872
  H       1.547117      1.407952     -0.675705
  H       3.822061      0.343208     -1.745955
  H       3.345192     -0.912619     -3.986419
  H      -0.872773     -3.165880     -0.147089
  H      -0.674990     -2.402502      2.456695
  H       1.873565     -1.628623      2.891238
  O       1.306523      2.448470      0.273112
  O       0.534956      0.898374      1.680468
  C       0.906345      2.100000      1.380466
  C       0.845822      3.072438      2.524920
  H       0.805045      4.094419      2.158090
  H       1.749814      2.969753      3.128427
  H      -0.001625      2.876347      3.178549
  H       3.233240     -1.910701      0.603817
  H       1.534955     -2.856743     -1.281708
39
Coordinates from ORCA-job reaction4-IEIP_ts_guess_scan_1-5_orca E -1288.396113739869
  Ir      0.576886     -0.730579      0.472650
  C       0.020501     -2.809216      0.345990
  C       0.109917     -2.365965      1.716846
  C       2.189841     -2.145384      0.756990
  C       1.282157     -2.644877     -0.251678
  C       1.480133     -2.014027      1.962605
  N      -1.043394      0.172797     -0.515377
  C      -2.316491      0.510227      0.140648
  C      -3.136600      1.542110     -0.616256
  H      -3.970947      1.855334      0.009739
  H      -3.570015      1.148484     -1.537142
  H      -2.557112      2.435209     -0.852393
  C      -3.114218     -0.762514      0.396217
  H      -2.026130      0.937837      1.101895
  H      -4.029886     -0.517233      0.932046
  H      -3.396275     -1.248252     -0.538908
  H      -2.564792     -1.476306      1.008393
  C      -0.829579      0.378593     -1.756753
  C       0.524126      0.153934     -2.220265
  H      -1.604144      0.739836     -2.427381
  C       1.632025      0.543031     -1.477627
  C       2.832230      0.124528     -2.121085
  S       0.940751     -0.649541     -3.670763
  C       2.612159     -0.519530     -3.297971
  H       1.545645      1.407552     -0.675936
  H       3.821299      0.343560     -1.745712
  H       3.345142     -0.909478     -3.988003
  H      -0.872763     -3.165816     -0.146444
  H      -0.675663     -2.402430      2.457421
  H       1.873059     -1.629367      2.892767
  O       1.304785      2.448669      0.272156
  O       0.536289      0.898859      1.681485
  C       0.906116      2.100592      1.380234
  C       0.847081      3.073708      2.524182
  H       0.804449      4.095408      2.156794
  H       1.752541      2.972344      3.125713
  H       0.001314      2.877148      3.179839
  H       3.233505     -1.912248      0.606006
  H       1.535430     -2.857810     -1.280185
