39
Coordinates from ORCA-job reaction4-IEIP_ts_guess_scan_2-12_orca E -1288.393563689729
  Ir      0.572257     -0.732488      0.500863
  C       0.024356     -2.811132      0.364303
  C       0.073764     -2.369199      1.736641
  C       2.181530     -2.141958      0.835301
  C       1.302502     -2.641967     -0.198350
  C       1.435253     -2.012001      2.019910
  N      -1.044583      0.148400     -0.503365
  C      -2.327910      0.456132      0.150892
  C      -3.120928      1.549024     -0.548672
  H      -3.954994      1.841249      0.087917
  H      -3.553884      1.222210     -1.495325
  H      -2.519544      2.441069     -0.725916
  C      -3.145634     -0.820677      0.304144
  H      -2.054519      0.814931      1.144641
  H      -4.069518     -0.602180      0.837669
  H      -3.413107     -1.238695     -0.667262
  H      -2.615084     -1.581235      0.875258
  C      -0.842295      0.355539     -1.745481
  C       0.504272      0.163428     -2.221631
  H      -1.633190      0.695125     -2.408715
  C       1.609888      0.479002     -1.442650
  C       2.807792      0.106871     -2.114764
  S       0.921246     -0.507851     -3.738807
  C       2.588617     -0.425548     -3.348433
  H       1.542097      1.378405     -0.598918
  H       3.798253      0.280861     -1.719739
  H       3.322960     -0.756594     -4.067398
  H      -0.852616     -3.171213     -0.154179
  H      -0.732686     -2.408750      2.454183
  H       1.800444     -1.627219      2.961302
  O       1.392681      2.397913      0.239760
  O       0.540612      0.929879      1.675734
  C       0.954842      2.101194      1.352513
  C       0.914265      3.121993      2.452432
  H       0.855613      4.127187      2.043723
  H       1.837035      3.053659      3.032110
  H       0.086626      2.945752      3.135643
  H       3.229414     -1.909970      0.715609
  H       1.583544     -2.851956     -1.220202
39
Coordinates from ORCA-job reaction4-IEIP_ts_guess_scan_2-12_orca E -1288.393722154432
  Ir      0.575487     -0.734350      0.501262
  C       0.022497     -2.813254      0.370715
  C       0.070964     -2.369256      1.742137
  C       2.180272     -2.147606      0.842986
  C       1.301663     -2.648375     -0.190492
  C       1.432373     -2.013145      2.025958
  N      -1.044759      0.148283     -0.505673
  C      -2.327273      0.454581      0.149448
  C      -3.121623      1.545497     -0.551569
  H      -3.956656      1.836829      0.084153
  H      -3.553154      1.217060     -1.498349
  H      -2.521709      2.438466     -0.729191
  C      -3.142501     -0.823574      0.304024
  H      -2.053506      0.814474      1.142696
  H      -4.066183     -0.606427      0.838420
  H      -3.410258     -1.242461     -0.666925
  H      -2.609895     -1.582914      0.874899
  C      -0.844444      0.359746     -1.750653
  C       0.502871      0.173875     -2.232950
  H      -1.637018      0.703130     -2.409983
  C       1.606833      0.475531     -1.446595
  C       2.805334      0.103173     -2.118181
  S       0.920978     -0.486023     -3.754512
  C       2.587738     -0.416192     -3.357657
  H       1.541179      1.381878     -0.598793
  H       3.795338      0.269250     -1.718508
  H       3.322850     -0.743484     -4.077468
  H      -0.854413     -3.172946     -0.148154
  H      -0.736209     -2.406476      2.458899
  H       1.797024     -1.626871      2.966938
  O       1.396433      2.402851      0.238920
  O       0.541491      0.931511      1.677144
  C       0.958339      2.103129      1.353987
  C       0.917587      3.123573      2.454038
  H       0.858995      4.128973      2.045710
  H       1.840235      3.054899      3.033814
  H       0.089797      2.946988      3.136908
  H       3.228964     -1.918927      0.724588
  H       1.583730     -2.862229     -1.211248
39
Coordinates from ORCA-job reaction4-IEIP_ts_guess_scan_2-12_orca E -1288.393791981848
  Ir      0.574506     -0.735497      0.502901
  C       0.017027     -2.813922      0.379735
  C       0.061795     -2.366815      1.749693
  C       2.174247     -2.150815      0.855938
  C       1.298242     -2.653594     -0.178283
  C       1.422183     -2.010861      2.035854
  N      -1.041476      0.144965     -0.506319
  C      -2.323993      0.450536      0.148774
  C      -3.120321      1.540140     -0.552121
  H      -3.955742      1.830308      0.083661
  H      -3.551537      1.210851     -1.498721
  H      -2.521944      2.434084     -0.730013
  C      -3.138167     -0.828112      0.305111
  H      -2.049846      0.811278      1.141648
  H      -4.061519     -0.611341      0.840305
  H      -3.406507     -1.247857     -0.665282
  H      -2.604328     -1.586513      0.875932
  C      -0.841988      0.360752     -1.752182
  C       0.504556      0.178762     -2.241371
  H      -1.635943      0.707702     -2.407605
  C       1.608763      0.464430     -1.449564
  C       2.806824      0.102639     -2.128058
  S       0.920773     -0.456659     -3.773112
  C       2.588123     -0.395077     -3.376190
  H       1.545389      1.378050     -0.598241
  H       3.797198      0.261937     -1.726494
  H       3.322507     -0.709599     -4.102374
  H      -0.858831     -3.173667     -0.140830
  H      -0.747475     -2.400866      2.464143
  H       1.784367     -1.621687      2.976594
  O       1.405922      2.401010      0.237943
  O       0.536707      0.931896      1.675074
  C       0.960954      2.100825      1.352652
  C       0.921303      3.122311      2.451110
  H       0.868880      4.127666      2.041823
  H       1.841542      3.049658      3.034242
  H       0.090154      2.949837      3.130850
  H       3.223952     -1.925318      0.740714
  H       1.583073     -2.872248     -1.197197
39
Coordinates from ORCA-job reaction4-IEIP_ts_guess_scan_2-12_orca E -1288.393819591074
  Ir      0.575327     -0.738073      0.505683
  C       0.015299     -2.816258      0.389886
  C       0.057095     -2.365198      1.758284
  C       2.172232     -2.154540      0.868532
  C       1.298181     -2.659853     -0.165963
  C       1.416878     -2.009220      2.045904
  N      -1.040145      0.141605     -0.508182
  C      -2.323913      0.444978      0.146411
  C      -3.120594      1.536298     -0.551420
  H      -3.956657      1.823727      0.084747
  H      -3.551068      1.209826     -1.499324
  H      -2.522884      2.431361     -0.725953
  C      -3.139105     -0.833621      0.298715
  H      -2.051040      0.803200      1.140561
  H      -4.063082     -0.617508      0.833103
  H      -3.406350     -1.250918     -0.673038
  H      -2.606725     -1.593620      0.868502
  C      -0.841589      0.363013     -1.753186
  C       0.503076      0.185442     -2.247201
  H      -1.637201      0.711938     -2.405397
  C       1.607659      0.456598     -1.451020
  C       2.805154      0.101388     -2.133379
  S       0.918395     -0.421732     -3.789886
  C       2.585552     -0.375135     -3.389736
  H       1.547560      1.373940     -0.598246
  H       3.795673      0.249259     -1.727875
  H       3.319264     -0.681620     -4.120007
  H      -0.859672     -3.176694     -0.131701
  H      -0.753843     -2.395994      2.470949
  H       1.777197     -1.616862      2.986057
  O       1.413842      2.398727      0.236640
  O       0.536423      0.933887      1.673839
  C       0.965506      2.099843      1.351044
  C       0.929059      3.123652      2.447144
  H       0.880791      4.128470      2.036110
  H       1.848566      3.048472      3.031139
  H       0.096665      2.955341      3.126431
  H       3.222741     -1.931613      0.755766
  H       1.585102     -2.883319     -1.183194
39
Coordinates from ORCA-job reaction4-IEIP_ts_guess_scan_2-12_orca E -1288.393831612419
  Ir      0.574555     -0.741144      0.510227
  C       0.012428     -2.818600      0.400278
  C       0.049874     -2.363585      1.767230
  C       2.168688     -2.158423      0.883831
  C       1.297612     -2.666003     -0.152011
  C       1.408913     -2.007880      2.057892
  N      -1.038029      0.138031     -0.509019
  C      -2.323249      0.438971      0.144870
  C      -3.119518      1.533370     -0.548719
  H      -3.955901      1.817817      0.088337
  H      -3.549697      1.211150     -1.498210
  H      -2.521934      2.429357     -0.718947
  C      -3.139797     -0.839561      0.290900
  H      -2.052091      0.793323      1.140889
  H      -4.064786     -0.624466      0.823915
  H      -3.405217     -1.253221     -0.682913
  H      -2.609578     -1.602122      0.859241
  C      -0.840183      0.363721     -1.752944
  C       0.501975      0.189017     -2.250964
  H      -1.637678      0.712626     -2.402950
  C       1.607827      0.444796     -1.451285
  C       2.804459      0.102631     -2.140919
  S       0.915214     -0.395695     -3.802308
  C       2.583089     -0.348322     -3.406614
  H       1.551180      1.364570     -0.598136
  H       3.795491      0.243090     -1.734159
  H       3.315737     -0.639628     -4.144129
  H      -0.861082     -3.179566     -0.123402
  H      -0.763607     -2.390800      2.477118
  H       1.766456     -1.612410      2.997823
  O       1.423271      2.391866      0.234573
  O       0.535803      0.935217      1.672656
  C       0.970813      2.097227      1.348474
  C       0.937406      3.125489      2.440707
  H       0.893994      4.129046      2.026181
  H       1.855809      3.048375      3.026203
  H       0.103398      2.963064      3.119519
  H       3.220103     -1.938008      0.774772
  H       1.587621     -2.894130     -1.167265
39
Coordinates from ORCA-job reaction4-IEIP_ts_guess_scan_2-12_orca E -1288.393836801673
  Ir      0.573279     -0.741095      0.511589
  C       0.012592     -2.818459      0.401641
  C       0.047146     -2.362575      1.768389
  C       2.167746     -2.157184      0.888989
  C       1.298878     -2.665675     -0.148297
  C       1.405521     -2.006117      2.061423
  N      -1.037361      0.136888     -0.508859
  C      -2.322981      0.435891      0.145463
  C      -3.118967      1.532787     -0.544640
  H      -3.954979      1.815482      0.093685
  H      -3.549735      1.213747     -1.494934
  H      -2.521164      2.429099     -0.712309
  C      -3.139802     -0.842983      0.286788
  H      -2.052464      0.787107      1.142771
  H      -4.065359     -0.629281      0.819374
  H      -3.404202     -1.253752     -0.688528
  H      -2.610451     -1.607458      0.853465
  C      -0.840075      0.364041     -1.752424
  C       0.501081      0.191325     -2.251797
  H      -1.638615      0.712265     -2.401637
  C       1.607902      0.441048     -1.451502
  C       2.803929      0.101089     -2.142597
  S       0.914058     -0.378414     -3.808716
  C       2.581276     -0.344306     -3.410253
  H       1.553592      1.360121     -0.598045
  H       3.795235      0.235304     -1.734464
  H       3.313137     -0.635182     -4.148722
  H      -0.859631     -3.180107     -0.123710
  H      -0.767835     -2.389308      2.476579
  H       1.761100     -1.609711      3.001712
  O       1.428067      2.388453      0.233748
  O       0.534711      0.936431      1.671516
  C       0.972789      2.096759      1.346927
  C       0.939849      3.127207      2.437506
  H       0.898674      4.130101      2.021206
  H       1.857401      3.049477      3.024250
  H       0.104782      2.967477      3.115683
  H       3.219363     -1.936650      0.782229
  H       1.590882     -2.894654     -1.162759
39
Coordinates from ORCA-job reaction4-IEIP_ts_guess_scan_2-12_orca E -1288.393842951825
  Ir      0.573458     -0.740863      0.511806
  C       0.014161     -2.818550      0.399692
  C       0.047591     -2.363280      1.766810
  C       2.168666     -2.156335      0.889163
  C       1.300708     -2.664539     -0.149102
  C       1.405719     -2.006522      2.061190
  N      -1.037644      0.137258     -0.508358
  C      -2.323019      0.436139      0.146399
  C      -3.117996      1.534384     -0.542747
  H      -3.953656      1.817385      0.095929
  H      -3.549135      1.216544     -1.493265
  H      -2.519259      2.430171     -0.709777
  C      -3.140431     -0.842547      0.285902
  H      -2.052436      0.786034      1.144129
  H      -4.066135     -0.629126      0.818391
  H      -3.404629     -1.252089     -0.689982
  H      -2.611626     -1.607935      0.851813
  C      -0.840854      0.363287     -1.752382
  C       0.500383      0.190680     -2.251414
  H      -1.639671      0.710433     -2.401804
  C       1.607319      0.441355     -1.451641
  C       2.803278      0.099927     -2.141907
  S       0.913525     -0.382290     -3.807372
  C       2.580593     -0.346606     -3.409263
  H       1.553405      1.359409     -0.597973
  H       3.794606      0.234875     -1.734075
  H       3.312520     -0.637960     -4.147485
  H      -0.857414     -3.180482     -0.126527
  H      -0.767921     -2.390782      2.474378
  H       1.760485     -1.610628      3.001997
  O       1.427620      2.388063      0.233382
  O       0.535130      0.936527      1.672020
  C       0.972481      2.097286      1.346695
  C       0.938751      3.127983      2.437038
  H       0.896343      4.130657      2.020307
  H       1.856582      3.051439      3.023491
  H       0.104093      2.967646      3.115541
  H       3.220232     -1.935115      0.783272
  H       1.593545     -2.892642     -1.163534
39
Coordinates from ORCA-job reaction4-IEIP_ts_guess_scan_2-12_orca E -1288.393851497970
  Ir      0.573717     -0.740802      0.513332
  C       0.016586     -2.819087      0.397924
  C       0.045543     -2.364090      1.765420
  C       2.169204     -2.155336      0.894711
  C       1.304669     -2.663534     -0.146503
  C       1.402673     -2.006829      2.064427
  N      -1.037232      0.137117     -0.507023
  C      -2.322523      0.434540      0.148518
  C      -3.115230      1.537102     -0.536507
  H      -3.950275      1.819517      0.103265
  H      -3.546974      1.223718     -1.488203
  H      -2.514408      2.432060     -0.700276
  C      -3.141383     -0.843931      0.281215
  H      -2.052325      0.779565      1.147993
  H      -4.067604     -0.632164      0.813527
  H      -3.404752     -1.248830     -0.696827
  H      -2.613971     -1.612498      0.844106
  C      -0.841945      0.361929     -1.751823
  C       0.498770      0.190436     -2.251790
  H      -1.642097      0.706844     -2.400767
  C       1.606515      0.438538     -1.452404
  C       2.801830      0.098245     -2.143778
  S       0.911126     -0.381369     -3.808821
  C       2.577986     -0.345610     -3.412128
  H       1.554726      1.355259     -0.597540
  H       3.793546      0.232726     -1.736782
  H       3.309457     -0.634961     -4.151605
  H      -0.852844     -3.181813     -0.131271
  H      -0.772240     -2.392324      2.470354
  H       1.754270     -1.611239      3.006549
  O       1.430404      2.385656      0.231875
  O       0.535923      0.937467      1.672559
  C       0.973813      2.097977      1.345260
  C       0.938287      3.130502      2.433742
  H       0.894345      4.132285      2.014975
  H       1.856200      3.056447      3.020353
  H       0.103802      2.970170      3.112403
  H       3.220986     -1.933462      0.792413
  H       1.600799     -2.891032     -1.160129
39
Coordinates from ORCA-job reaction4-IEIP_ts_guess_scan_2-12_orca E -1288.393856877733
  Ir      0.574239     -0.740807      0.514841
  C       0.018776     -2.819683      0.397424
  C       0.042551     -2.364336      1.764971
  C       2.169325     -2.154503      0.902150
  C       1.308728     -2.663226     -0.142085
  C       1.398404     -2.006473      2.069009
  N      -1.036525      0.136343     -0.505762
  C      -2.321950      0.432034      0.150400
  C      -3.112471      1.539231     -0.529822
  H      -3.947108      1.820509      0.110985
  H      -3.544538      1.230839     -1.482977
  H      -2.509663      2.433554     -0.689596
  C      -3.142418     -0.846172      0.275628
  H      -2.052277      0.771583      1.151853
  H      -4.068961     -0.636361      0.808180
  H      -3.405273     -1.245650     -0.704783
  H      -2.616238     -1.618348      0.834738
  C      -0.842803      0.360800     -1.751070
  C       0.497154      0.190719     -2.252826
  H      -1.644430      0.704194     -2.399004
  C       1.605824      0.434973     -1.453663
  C       2.800321      0.096378     -2.146854
  S       0.908189     -0.375741     -3.812387
  C       2.575027     -0.342171     -3.416969
  H       1.556559      1.350860     -0.597065
  H       3.792502      0.228708     -1.740316
  H       3.305832     -0.628994     -4.158096
  H      -0.848303     -3.183364     -0.134948
  H      -0.777822     -2.392906      2.466886
  H       1.746284     -1.610621      3.012405
  O       1.434712      2.383244      0.230243
  O       0.536632      0.938634      1.672380
  C       0.975796      2.098392      1.343421
  C       0.938711      3.132906      2.429833
  H       0.893883      4.133823      2.009049
  H       1.856527      3.060971      3.016843
  H       0.104106      2.972959      3.108397
  H       3.221430     -1.932368      0.803928
  H       1.608642     -2.890742     -1.154601
39
Coordinates from ORCA-job reaction4-IEIP_ts_guess_scan_2-12_orca E -1288.393862991904
  Ir      0.575572     -0.741078      0.517010
  C       0.022404     -2.820927      0.397188
  C       0.036995     -2.364537      1.764554
  C       2.169355     -2.153511      0.915652
  C       1.315736     -2.663549     -0.133644
  C       1.390452     -2.005605      2.077291
  N      -1.035307      0.134559     -0.503663
  C      -2.321073      0.427314      0.153398
  C      -3.107797      1.542620     -0.518148
  H      -3.942041      1.821477      0.124208
  H      -3.539984      1.243169     -1.474057
  H      -2.501681      2.435992     -0.670400
  C      -3.144457     -0.850279      0.265510
  H      -2.052343      0.757038      1.158332
  H      -4.071097     -0.644077      0.799318
  H      -3.407211     -1.239623     -0.719008
  H      -2.619988     -1.629048      0.817068
  C      -0.844046      0.359148     -1.749504
  C       0.494592      0.191076     -2.254600
  H      -1.647939      0.700923     -2.395512
  C       1.604851      0.429167     -1.455995
  C       2.797890      0.094345     -2.153105
  S       0.902752     -0.365674     -3.818590
  C       2.569885     -0.336029     -3.425693
  H       1.559604      1.343806     -0.596211
  H       3.790936      0.223432     -1.747673
  H       3.299401     -0.618691     -4.169682
  H      -0.840620     -3.186269     -0.140581
  H      -0.787893     -2.393434      2.461152
  H       1.731655     -1.608865      3.022768
  O       1.442563      2.379684      0.227416
  O       0.538214      0.940719      1.671477
  C       0.979549      2.099006      1.340103
  C       0.939858      3.136930      2.422979
  H       0.893473      4.136427      1.998943
  H       1.857599      3.068704      3.010534
  H       0.105125      2.977515      3.101462
  H       3.222058     -1.931291      0.824540
  H       1.622328     -2.891375     -1.144099
39
Coordinates from ORCA-job reaction4-IEIP_ts_guess_scan_2-12_orca E -1288.393865795392
  Ir      0.576942     -0.741448      0.518267
  C       0.025809     -2.822056      0.396958
  C       0.031982     -2.364549      1.763992
  C       2.169402     -2.152498      0.927651
  C       1.322241     -2.664145     -0.126037
  C       1.383070     -2.004323      2.084421
  N      -1.034470      0.132625     -0.502084
  C      -2.320461      0.423080      0.155806
  C      -3.104005      1.545246     -0.508091
  H      -3.938174      1.821594      0.135422
  H      -3.535957      1.253589     -1.466483
  H      -2.495310      2.437988     -0.653488
  C      -3.146407     -0.853829      0.256914
  H      -2.052389      0.744316      1.163630
  H      -4.072467     -0.650895      0.792968
  H      -3.410228     -1.233840     -0.730969
  H      -2.622801     -1.638539      0.800863
  C      -0.845081      0.358011     -1.748071
  C       0.492455      0.191267     -2.256151
  H      -1.650528      0.699537     -2.392325
  C       1.604015      0.424810     -1.458244
  C       2.795802      0.092727     -2.158683
  S       0.897803     -0.357033     -3.823789
  C       2.565509     -0.330849     -3.433153
  H       1.561913      1.338256     -0.595590
  H       3.789544      0.218790     -1.754024
  H       3.293853     -0.610431     -4.179439
  H      -0.833585     -3.188925     -0.145549
  H      -0.796916     -2.393738      2.455801
  H       1.718069     -1.606363      3.031623
  O       1.449651      2.377032      0.225046
  O       0.539532      0.942439      1.669888
  C       0.982881      2.099285      1.337097
  C       0.941200      3.140071      2.417108
  H       0.893601      4.138435      1.990522
  H       1.858949      3.074902      3.004995
  H       0.106429      2.981141      3.095640
  H       3.222612     -1.930294      0.842892
  H       1.634887     -2.892196     -1.134594
39
Coordinates from ORCA-job reaction4-IEIP_ts_guess_scan_2-12_orca E -1288.393866322512
  Ir      0.577910     -0.741884      0.518579
  C       0.028556     -2.822927      0.396239
  C       0.028569     -2.364749      1.763043
  C       2.169597     -2.151590      0.935711
  C       1.327240     -2.664636     -0.121103
  C       1.377805     -2.003217      2.088901
  N      -1.034327      0.131186     -0.501274
  C      -2.320340      0.420388      0.157279
  C      -3.101910      1.546826     -0.501678
  H      -3.936325      1.821110      0.142390
  H      -3.533338      1.260256     -1.461819
  H      -2.491870      2.439407     -0.642271
  C      -3.147952     -0.855998      0.251592
  H      -2.052539      0.736272      1.166850
  H      -4.072964     -0.655348      0.790297
  H      -3.413641     -1.229399     -0.738310
  H      -2.624319     -1.644840      0.789520
  C      -0.845854      0.357618     -1.747104
  C       0.491066      0.191130     -2.256972
  H      -1.651824      0.699969     -2.390314
  C       1.603430      0.422677     -1.459738
  C       2.794423      0.092223     -2.162405
  S       0.894320     -0.353062     -3.826391
  C       2.562663     -0.328522     -3.437462
  H       1.562913      1.335105     -0.595297
  H       3.788583      0.216981     -1.758368
  H       3.290162     -0.606666     -4.185092
  H      -0.828237     -3.190867     -0.149643
  H      -0.803145     -2.394341      2.451446
  H       1.708221     -1.604162      3.037273
  O       1.454354      2.375633      0.223616
  O       0.540374      0.943520      1.668359
  C       0.985145      2.099361      1.335163
  C       0.942572      3.141928      2.413508
  H       0.894078      4.139593      1.985395
  H       1.860551      3.078713      3.001257
  H       0.108050      2.983340      3.092429
  H       3.223131     -1.929339      0.855482
  H       1.644242     -2.892500     -1.128350
39
Coordinates from ORCA-job reaction4-IEIP_ts_guess_scan_2-12_orca E -1288.393866076101
  Ir      0.578108     -0.742058      0.518420
  C       0.030230     -2.823280      0.395226
  C       0.026886     -2.365008      1.762005
  C       2.169761     -2.150629      0.939422
  C       1.330091     -2.664523     -0.119107
  C       1.375054     -2.002427      2.090711
  N      -1.034616      0.130599     -0.501157
  C      -2.320522      0.419323      0.157850
  C      -3.101564      1.547243     -0.499147
  H      -3.936286      1.820236      0.145079
  H      -3.532558      1.262706     -1.460080
  H      -2.491385      2.440061     -0.637572
  C      -3.148633     -0.856923      0.249715
  H      -2.052697      0.733302      1.168002
  H      -4.072749     -0.657406      0.790370
  H      -3.415898     -1.227322     -0.740886
  H      -2.624499     -1.647604      0.784450
  C      -0.846372      0.357790     -1.746805
  C       0.490344      0.191119     -2.257310
  H      -1.652253      0.701056     -2.389661
  C       1.603006      0.422170     -1.460416
  C       2.793685      0.091737     -2.163688
  S       0.892733     -0.352113     -3.827140
  C       2.561425     -0.328179     -3.438871
  H       1.562978      1.333983     -0.595354
  H       3.787949      0.215883     -1.759717
  H       3.288516     -0.606128     -4.186959
  H      -0.825142     -3.191791     -0.152504
  H      -0.806291     -2.395054      2.448617
  H       1.702982     -1.602734      3.039690
  O       1.456630      2.375106      0.223092
  O       0.540484      0.944045      1.667363
  C       0.986317      2.099355      1.334367
  C       0.943900      3.142559      2.412195
  H       0.895075      4.139949      1.983486
  H       1.862157      3.079953      2.999577
  H       0.109700      2.984292      3.091590
  H       3.223423     -1.928170      0.861619
  H       1.649401     -2.891928     -1.125733
