! Opt PBEh-3c
%geom Constraints
{ B 0 20 2.428571428571429 C }
{ B 24 30 1.3142857142857143 C }
    end
end
%output 
xyzfile=True 
end 
%scf 
maxiter 250 
end
%output
Print[P_Hirshfeld] = 1
end
% maxcore
4000
*xyz 1 1
Ir   0.58850515  -0.74181199   0.51174780 
C    0.06129352  -2.82940816   0.37737247 
C   -0.00127761  -2.37039719   1.74231211 
C    2.17274825  -2.13586586   1.00598647 
C    1.38100197  -2.66225414  -0.08203895 
C    1.32659417  -1.99103666   2.12220380 
N   -1.03454180   0.12530481  -0.49752557 
C   -2.31802538   0.39831683   0.17273847 
C   -3.09021470   1.55741427  -0.43980271 
H   -3.92414156   1.81045285   0.21353290 
H   -3.52111081   1.31423459  -1.41193322 
H   -2.47308378   2.45024925  -0.54211398 
C   -3.15497930  -0.87493919   0.21155404 
H   -2.04926174   0.67074696   1.19442333 
H   -4.07283639  -0.69649881   0.77002341 
H   -3.43346815  -1.19492433  -0.79340467 
H   -2.63061713  -1.69481515   0.70015343 
C   -0.85843249   0.36613706  -1.74267523 
C    0.47241066   0.20145793  -2.26574033 
H   -1.66995550   0.71721764  -2.37403628 
C    1.58630554   0.37287643  -1.45543882 
C    2.77316066   0.05183561  -2.16965004 
S    0.86894866  -0.28005253  -3.85528092 
C    2.53640461  -0.30542454  -3.46322840 
H    1.57418945   1.30411291  -0.59712867 
H    3.76831345   0.13865117  -1.75827219 
H    3.25988754  -0.56279337  -4.22205767 
H   -0.76662431  -3.20927478  -0.20369345 
H   -0.86066358  -2.40671914   2.39538343 
H    1.61083992  -1.58297230   3.08179992 
O    1.49302937   2.36268365   0.20158471 
O    0.54692625   0.95621928   1.64932908 
C    1.00491915   2.10301250   1.31067810 
C    0.95750880   3.16207375   2.37251871 
H    0.89479836   4.15202750   1.92842148 
H    1.88095846   3.11963717   2.95343768 
H    0.12956591   3.00509653   3.05956718 
H    3.22829776  -1.91199557   0.97457475 
H    1.74199662  -2.88938499  -1.07458205 
*
