39
Coordinates from ORCA-job reaction4-IEIP_ts_guess_scan_2-9_orca E -1288.394868450740
  Ir      0.573246     -0.730731      0.477134
  C       0.018410     -2.808120      0.347518
  C       0.105125     -2.369068      1.719352
  C       2.187155     -2.144415      0.763189
  C       1.281048     -2.641074     -0.248370
  C       1.474602     -2.015889      1.967682
  N      -1.048165      0.163453     -0.513424
  C      -2.324140      0.491798      0.143046
  C      -3.137291      1.542082     -0.596590
  H      -3.969953      1.849986      0.034352
  H      -3.573208      1.168287     -1.524475
  H      -2.551279      2.434871     -0.817108
  C      -3.128044     -0.782546      0.369760
  H      -2.038183      0.900159      1.113959
  H      -4.046735     -0.544259      0.903646
  H      -3.404862     -1.250151     -0.576102
  H      -2.585202     -1.509504      0.972252
  C      -0.837883      0.366644     -1.755302
  C       0.515547      0.154727     -2.215206
  H      -1.616905      0.717506     -2.426425
  C       1.612809      0.515054     -1.443533
  C       2.820131      0.116010     -2.084349
  S       0.949418     -0.594414     -3.689660
  C       2.614763     -0.483732     -3.288303
  H       1.518639      1.392698     -0.623005
  H       3.805127      0.316621     -1.688216
  H       3.356563     -0.849939     -3.982099
  H      -0.873642     -3.163705     -0.147911
  H      -0.681915     -2.407999      2.458225
  H       1.865975     -1.633705      2.899534
  O       1.325531      2.436323      0.245542
  O       0.542941      0.911292      1.674071
  C       0.923780      2.102974      1.360392
  C       0.881841      3.093469      2.488933
  H       0.832163      4.109568      2.107157
  H       1.797872      3.002165      3.076035
  H       0.047388      2.905009      3.161054
  H       3.231258     -1.911282      0.615218
  H       1.535442     -2.850971     -1.277232
39
Coordinates from ORCA-job reaction4-IEIP_ts_guess_scan_2-9_orca E -1288.392463541666
  Ir      0.577133     -0.713558      0.465645
  C       0.043434     -2.796211      0.310674
  C       0.118191     -2.373179      1.687977
  C       2.202937     -2.115561      0.746135
  C       1.307543     -2.609818     -0.275952
  C       1.482235     -2.007897      1.947798
  N      -1.056828      0.173366     -0.518689
  C      -2.328774      0.506361      0.141981
  C      -3.149350      1.543931     -0.607217
  H      -3.979285      1.858202      0.024173
  H      -3.589309      1.155939     -1.527361
  H      -2.567204      2.435211     -0.843560
  C      -3.126632     -0.767554      0.391091
  H      -2.037507      0.928473      1.105406
  H      -4.042331     -0.525367      0.928348
  H      -3.408486     -1.248499     -0.546543
  H      -2.576771     -1.484583      0.999159
  C      -0.855249      0.357105     -1.765821
  C       0.498083      0.138556     -2.222402
  H      -1.638542      0.690638     -2.440786
  C       1.590319      0.540950     -1.463421
  C       2.800324      0.107623     -2.077811
  S       0.938296     -0.684321     -3.654573
  C       2.601102     -0.556306     -3.248457
  H       1.496308      1.496533     -0.720727
  H       3.783714      0.335652     -1.692772
  H       3.346623     -0.955473     -3.919611
  H      -0.842081     -3.155319     -0.193814
  H      -0.672158     -2.429728      2.422085
  H       1.864478     -1.632665      2.886226
  O       1.439790      2.397127      0.312014
  O       0.516161      0.909842      1.685877
  C       0.954357      2.086698      1.400718
  C       0.873298      3.082910      2.521885
  H       0.883140      4.098560      2.135686
  H       1.745803      2.963080      3.167223
  H      -0.008861      2.925611      3.138690
  H       3.245555     -1.871003      0.606937
  H       1.569919     -2.806133     -1.305468
39
Coordinates from ORCA-job reaction4-IEIP_ts_guess_scan_2-9_orca E -1288.394941783128
  Ir      0.577003     -0.729792      0.479328
  C       0.027071     -2.809968      0.344582
  C       0.106109     -2.375240      1.718000
  C       2.192139     -2.141327      0.771669
  C       1.292234     -2.638228     -0.245115
  C       1.472997     -2.017677      1.973013
  N      -1.046463      0.165126     -0.511737
  C      -2.320650      0.494900      0.145647
  C      -3.132074      1.545515     -0.595281
  H      -3.964683      1.855298      0.034798
  H      -3.567717      1.171186     -1.523120
  H      -2.544665      2.437220     -0.816549
  C      -3.125069     -0.778884      0.373328
  H      -2.033280      0.903094      1.116201
  H      -4.042842     -0.540035      0.908531
  H      -3.403480     -1.246242     -0.572174
  H      -2.581483     -1.506087      0.974951
  C      -0.837489      0.374302     -1.754831
  C       0.515310      0.163036     -2.222420
  H      -1.617786      0.731344     -2.421187
  C       1.617745      0.505333     -1.447575
  C       2.819315      0.096709     -2.095286
  S       0.939047     -0.584523     -3.700321
  C       2.606091     -0.492118     -3.302493
  H       1.544130      1.406177     -0.635280
  H       3.807385      0.287691     -1.702130
  H       3.342938     -0.858979     -4.001088
  H      -0.861562     -3.167096     -0.155813
  H      -0.683814     -2.419481      2.453379
  H       1.858893     -1.636866      2.907688
  O       1.314058      2.426932      0.251254
  O       0.530305      0.909716      1.682427
  C       0.914950      2.098755      1.369404
  C       0.867169      3.095140      2.492223
  H       0.815638      4.109164      2.105056
  H       1.781846      3.009558      3.082208
  H       0.031369      2.907646      3.162774
  H       3.236463     -1.905994      0.629635
  H       1.552223     -2.846115     -1.272955
39
Coordinates from ORCA-job reaction4-IEIP_ts_guess_scan_2-9_orca E -1288.392757885994
  Ir      0.562424     -0.737989      0.486132
  C      -0.005411     -2.815537      0.399219
  C       0.077814     -2.350328      1.762029
  C       2.165353     -2.155843      0.810496
  C       1.260797     -2.668593     -0.194121
  C       1.447565     -1.998631      2.008608
  N      -1.058122      0.141879     -0.526335
  C      -2.336619      0.466589      0.126479
  C      -3.154626      1.508922     -0.619045
  H      -3.990324      1.814768      0.008875
  H      -3.586506      1.128393     -1.546085
  H      -2.573410      2.404139     -0.842429
  C      -3.133133     -0.811618      0.357526
  H      -2.054364      0.880295      1.096138
  H      -4.053435     -0.576951      0.890258
  H      -3.406709     -1.284302     -0.586738
  H      -2.585711     -1.532944      0.962662
  C      -0.851931      0.348601     -1.769867
  C       0.502879      0.167477     -2.240675
  H      -1.635448      0.704964     -2.432563
  C       1.595256      0.492886     -1.447733
  C       2.808313      0.163675     -2.118031
  S       0.944610     -0.488440     -3.755901
  C       2.610025     -0.360287     -3.357860
  H       1.483438      1.315609     -0.567106
  H       3.790740      0.356524     -1.711702
  H       3.355896     -0.665221     -4.076476
  H      -0.897281     -3.176231     -0.092827
  H      -0.712284     -2.370889      2.498270
  H       1.836860     -1.599720      2.934295
  O       1.558249      2.377941      0.296994
  O       0.531621      0.930868      1.655362
  C       1.016967      2.090116      1.366420
  C       0.938821      3.097390      2.477518
  H       0.999042      4.108799      2.084902
  H       1.785496      2.950186      3.151019
  H       0.032337      2.977973      3.067006
  H       3.211673     -1.932848      0.662955
  H       1.518508     -2.902430     -1.216928
39
Coordinates from ORCA-job reaction4-IEIP_ts_guess_scan_2-9_orca E -1288.395026094746
  Ir      0.570125     -0.726148      0.482522
  C       0.017367     -2.806452      0.364615
  C       0.094376     -2.360898      1.734389
  C       2.182423     -2.137293      0.789852
  C       1.283797     -2.641350     -0.224354
  C       1.460968     -2.002632      1.988706
  N      -1.050487      0.161119     -0.515119
  C      -2.329865      0.479953      0.138656
  C      -3.146514      1.528682     -0.599354
  H      -3.983244      1.829309      0.029708
  H      -3.576819      1.156055     -1.530338
  H      -2.564896      2.425727     -0.814223
  C      -3.127148     -0.799942      0.357533
  H      -2.048963      0.885315      1.112278
  H      -4.048226     -0.569580      0.890822
  H      -3.399405     -1.264453     -0.591160
  H      -2.580887     -1.526537      0.957332
  C      -0.839489      0.377488     -1.756665
  C       0.512301      0.172642     -2.228794
  H      -1.621110      0.734582     -2.421208
  C       1.617021      0.495680     -1.449518
  C       2.816701      0.102006     -2.109076
  S       0.932186     -0.534919     -3.726981
  C       2.600087     -0.457269     -3.329710
  H       1.549523      1.377769     -0.616037
  H       3.805769      0.280476     -1.712472
  H       3.334861     -0.809106     -4.038128
  H      -0.870851     -3.166386     -0.134496
  H      -0.696901     -2.398221      2.468663
  H       1.845585     -1.614482      2.920887
  O       1.407275      2.413321      0.271778
  O       0.521576      0.923374      1.673640
  C       0.951742      2.099812      1.372866
  C       0.896856      3.098543      2.493062
  H       0.892369      4.113231      2.104331
  H       1.786599      2.983795      3.115340
  H       0.031902      2.939097      3.133215
  H       3.227439     -1.904830      0.648059
  H       1.545327     -2.858290     -1.249882
39
Coordinates from ORCA-job reaction4-IEIP_ts_guess_scan_2-9_orca E -1288.395054826545
  Ir      0.576373     -0.732877      0.481646
  C       0.013784     -2.810947      0.367197
  C       0.092049     -2.364087      1.736291
  C       2.181702     -2.151466      0.792538
  C       1.281191     -2.652611     -0.221466
  C       1.460047     -2.011439      1.990656
  N      -1.045721      0.160221     -0.516742
  C      -2.323521      0.482236      0.138861
  C      -3.138318      1.533852     -0.597074
  H      -3.973422      1.836071      0.033386
  H      -3.570870      1.163348     -1.527850
  H      -2.554687      2.429620     -0.811760
  C      -3.124669     -0.795293      0.357672
  H      -2.040376      0.886192      1.112459
  H      -4.044576     -0.562272      0.891825
  H      -3.399153     -1.258404     -0.591053
  H      -2.580271     -1.523892      0.956573
  C      -0.838318      0.372117     -1.759766
  C       0.512810      0.170495     -2.230867
  H      -1.621209      0.726947     -2.424055
  C       1.612518      0.500118     -1.449095
  C       2.816130      0.112103     -2.104345
  S       0.938778     -0.548027     -3.721762
  C       2.605696     -0.450474     -3.324906
  H       1.538396      1.396614     -0.629422
  H       3.803139      0.300240     -1.707060
  H       3.344296     -0.797246     -4.031826
  H      -0.875775     -3.167452     -0.131975
  H      -0.699736     -2.397030      2.470223
  H       1.845914     -1.623726      2.922499
  O       1.354341      2.430595      0.252520
  O       0.533584      0.918356      1.673111
  C       0.934561      2.102982      1.364181
  C       0.895338      3.096092      2.489805
  H       0.861369      4.112164      2.106179
  H       1.805078      2.994537      3.084879
  H       0.052724      2.918488      3.154513
  H       3.227991     -1.924553      0.651240
  H       1.542185     -2.872403     -1.246491
39
Coordinates from ORCA-job reaction4-IEIP_ts_guess_scan_2-9_orca E -1288.395076252275
  Ir      0.576178     -0.732148      0.482223
  C       0.015796     -2.810282      0.366440
  C       0.092157     -2.364095      1.735742
  C       2.182627     -2.148926      0.794086
  C       1.283701     -2.650462     -0.221013
  C       1.459430     -2.010066      1.991536
  N      -1.044930      0.158729     -0.515808
  C      -2.322263      0.481198      0.140531
  C      -3.135771      1.534982     -0.593727
  H      -3.970134      1.837661      0.037500
  H      -3.569325      1.166389     -1.524791
  H      -2.550834      2.430115     -0.807503
  C      -3.125374     -0.795396      0.357852
  H      -2.038444      0.883577      1.114586
  H      -4.044997     -0.561578      0.892140
  H      -3.400431     -1.257040     -0.591425
  H      -2.582221     -1.525503      0.956020
  C      -0.838405      0.371134     -1.758849
  C       0.512300      0.170749     -2.232270
  H      -1.622134      0.726462     -2.421913
  C       1.613052      0.497050     -1.450546
  C       2.816121      0.108587     -2.106520
  S       0.937610     -0.533126     -3.730136
  C       2.604285     -0.451412     -3.328096
  H       1.539622      1.390508     -0.626977
  H       3.803449      0.289893     -1.706901
  H       3.341974     -0.801058     -4.034570
  H      -0.872889     -3.167332     -0.133897
  H      -0.700417     -2.397933      2.468758
  H       1.843897     -1.622212      2.923899
  O       1.362322      2.426192      0.254351
  O       0.531942      0.917656      1.672820
  C       0.937417      2.100637      1.364799
  C       0.890474      3.096884      2.487453
  H       0.858231      4.111930      2.100982
  H       1.796657      2.997453      3.088300
  H       0.043916      2.920515      3.147473
  H       3.228878     -1.921014      0.654074
  H       1.545901     -2.869525     -1.245884
39
Coordinates from ORCA-job reaction4-IEIP_ts_guess_scan_2-9_orca E -1288.395088034231
  Ir      0.574829     -0.731536      0.485185
  C       0.016520     -2.809777      0.367833
  C       0.089801     -2.364075      1.737383
  C       2.182020     -2.146766      0.799721
  C       1.285522     -2.648779     -0.217232
  C       1.456184     -2.008816      1.995811
  N      -1.044509      0.157140     -0.514343
  C      -2.322315      0.479103      0.141382
  C      -3.134101      1.535211     -0.591518
  H      -3.968511      1.837735      0.039729
  H      -3.567541      1.168920     -1.523542
  H      -2.547891      2.429993     -0.803279
  C      -3.126890     -0.797153      0.355337
  H      -2.039222      0.879346      1.116496
  H      -4.046971     -0.563473      0.888891
  H      -3.401159     -1.256773     -0.595152
  H      -2.585204     -1.528942      0.952825
  C      -0.838083      0.369735     -1.757447
  C       0.511969      0.168894     -2.233155
  H      -1.622731      0.723995     -2.420018
  C       1.614337      0.489979     -1.451037
  C       2.816564      0.106772     -2.111600
  S       0.935219     -0.528484     -3.734513
  C       2.602854     -0.443341     -3.337363
  H       1.541772      1.380880     -0.623747
  H       3.804477      0.285966     -1.712563
  H       3.339441     -0.786475     -4.048174
  H      -0.870870     -3.167346     -0.134446
  H      -0.704245     -2.398567      2.468753
  H       1.838463     -1.620753      2.928992
  O       1.372541      2.418457      0.256940
  O       0.529059      0.918072      1.674785
  C       0.939155      2.098769      1.365886
  C       0.891039      3.098727      2.485330
  H       0.864130      4.112690      2.095662
  H       1.794367      2.997910      3.090268
  H       0.041099      2.927435      3.142326
  H       3.228409     -1.918099      0.661985
  H       1.549845     -2.867384     -1.241652
39
Coordinates from ORCA-job reaction4-IEIP_ts_guess_scan_2-9_orca E -1288.395098549319
  Ir      0.575721     -0.732470      0.486735
  C       0.015942     -2.810298      0.369838
  C       0.088033     -2.364175      1.739276
  C       2.181595     -2.148895      0.803822
  C       1.285769     -2.650649     -0.213910
  C       1.454387     -2.009768      1.998989
  N      -1.043664      0.156267     -0.514110
  C      -2.321941      0.476722      0.141683
  C      -3.132491      1.536089     -0.588007
  H      -3.966854      1.837270      0.043953
  H      -3.566002      1.173456     -1.521420
  H      -2.545298      2.430981     -0.796529
  C      -3.127506     -0.799780      0.350300
  H      -2.039599      0.873333      1.118469
  H      -4.047991     -0.567411      0.883725
  H      -3.401048     -1.255877     -0.602092
  H      -2.586881     -1.534065      0.945717
  C      -0.838294      0.369146     -1.757483
  C       0.511092      0.169973     -2.234742
  H      -1.624139      0.722043     -2.419348
  C       1.613240      0.488053     -1.451179
  C       2.815706      0.106852     -2.112034
  S       0.934952     -0.521714     -3.738399
  C       2.602302     -0.438973     -3.339890
  H       1.540084      1.380062     -0.624345
  H       3.803456      0.284074     -1.711765
  H       3.339083     -0.779880     -4.051565
  H      -0.871128     -3.167372     -0.133388
  H      -0.706907     -2.397636      2.469720
  H       1.835923     -1.621550      2.932417
  O       1.369376      2.419358      0.254029
  O       0.532020      0.919137      1.675842
  C       0.939301      2.100034      1.364525
  C       0.893328      3.101345      2.482817
  H       0.862535      4.114745      2.091999
  H       1.799380      3.003369      3.084138
  H       0.046478      2.928892      3.143487
  H       3.228414     -1.921445      0.667385
  H       1.550997     -2.870053     -1.237918
39
Coordinates from ORCA-job reaction4-IEIP_ts_guess_scan_2-9_orca E -1288.395112204771
  Ir      0.577153     -0.733859      0.490432
  C       0.016703     -2.811199      0.372283
  C       0.084366     -2.365065      1.741875
  C       2.181419     -2.151022      0.813450
  C       1.288636     -2.652402     -0.207211
  C       1.449984     -2.011157      2.006019
  N      -1.041277      0.153908     -0.512753
  C      -2.319919      0.472642      0.143606
  C      -3.126668      1.539852     -0.579043
  H      -3.960146      1.839592      0.054789
  H      -3.561346      1.185406     -1.515030
  H      -2.536077      2.433922     -0.781252
  C      -3.128981     -0.803405      0.341193
  H      -2.038357      0.861225      1.123834
  H      -4.049931     -0.572816      0.874610
  H      -3.401724     -1.251778     -0.615082
  H      -2.591220     -1.543483      0.932015
  C      -0.838521      0.366265     -1.756833
  C       0.509246      0.170203     -2.237647
  H      -1.626985      0.716456     -2.417027
  C       1.611663      0.482020     -1.452005
  C       2.814011      0.105853     -2.114985
  S       0.933124     -0.510131     -3.746193
  C       2.600186     -0.430955     -3.347021
  H       1.537921      1.375878     -0.625506
  H       3.801820      0.279665     -1.713436
  H       3.336758     -0.766592     -4.061415
  H      -0.868695     -3.167918     -0.134133
  H      -0.713214     -2.397668      2.469470
  H       1.828553     -1.622841      2.940622
  O       1.364706      2.418262      0.248707
  O       0.535704      0.919592      1.677499
  C       0.939619      2.100218      1.361819
  C       0.893885      3.105372      2.476562
  H       0.855360      4.117145      2.082247
  H       1.803870      3.014645      3.073054
  H       0.051681      2.930514      3.142486
  H       3.229017     -1.924859      0.681008
  H       1.557044     -2.872297     -1.230268
39
Coordinates from ORCA-job reaction4-IEIP_ts_guess_scan_2-9_orca E -1288.395115467803
  Ir      0.577134     -0.733562      0.492452
  C       0.018218     -2.811274      0.373089
  C       0.082449     -2.365012      1.742824
  C       2.181605     -2.149752      0.819285
  C       1.291380     -2.651692     -0.203386
  C       1.447256     -2.010304      2.010117
  N      -1.040924      0.152590     -0.511926
  C      -2.320071      0.469655      0.144477
  C      -3.124533      1.541433     -0.574020
  H      -3.957760      1.840071      0.060672
  H      -3.559475      1.191870     -1.511706
  H      -2.531956      2.435073     -0.772179
  C      -3.130709     -0.806533      0.334733
  H      -2.039473      0.853158      1.126966
  H      -4.052159     -0.577750      0.868087
  H      -3.402561     -1.249971     -0.624091
  H      -2.594338     -1.550055      0.922489
  C      -0.839330      0.364858     -1.756297
  C       0.507746      0.170599     -2.238818
  H      -1.629154      0.713612     -2.415654
  C       1.610730      0.479029     -1.452525
  C       2.812600      0.104291     -2.116702
  S       0.931126     -0.503429     -3.750281
  C       2.598019     -0.428186     -3.350624
  H       1.537634      1.372994     -0.625406
  H       3.800658      0.275621     -1.714714
  H       3.334151     -0.762162     -4.066256
  H      -0.865666     -3.168704     -0.135456
  H      -0.716878     -2.397890      2.468489
  H       1.823434     -1.621712      2.945576
  O       1.365490      2.417159      0.246891
  O       0.535697      0.921090      1.677967
  C       0.938977      2.101310      1.360150
  C       0.896589      3.107613      2.473957
  H       0.857078      4.118941      2.078601
  H       1.808384      3.017533      3.067798
  H       0.056336      2.933521      3.142502
  H       3.229478     -1.923350      0.689490
  H       1.562187     -2.871490     -1.225830
39
Coordinates from ORCA-job reaction4-IEIP_ts_guess_scan_2-9_orca E -1288.395117987745
  Ir      0.577123     -0.733267      0.493553
  C       0.019565     -2.811490      0.373279
  C       0.081386     -2.364987      1.743102
  C       2.181914     -2.148614      0.822973
  C       1.293508     -2.651112     -0.201046
  C       1.445605     -2.009631      2.012626
  N      -1.040938      0.151967     -0.511097
  C      -2.320420      0.467734      0.145395
  C      -3.123091      1.542964     -0.569954
  H      -3.956175      1.840780      0.065312
  H      -3.558116      1.197058     -1.508946
  H      -2.528959      2.436242     -0.765011
  C      -3.132135     -0.808637      0.329992
  H      -2.040532      0.847253      1.129612
  H      -4.053871     -0.581464      0.863556
  H      -3.403474     -1.248137     -0.630788
  H      -2.596548     -1.554825      0.915091
  C      -0.839992      0.364268     -1.755624
  C       0.506732      0.170662     -2.239015
  H      -1.630544      0.712368     -2.414480
  C       1.610437      0.477228     -1.452878
  C       2.811633      0.102941     -2.118329
  S       0.929024     -0.501604     -3.751634
  C       2.596038     -0.427221     -3.353135
  H       1.538576      1.370909     -0.625161
  H       3.800075      0.273357     -1.716893
  H       3.331595     -0.760190     -4.069831
  H      -0.863199     -3.169677     -0.136666
  H      -0.719117     -2.398217      2.467458
  H       1.820081     -1.620847      2.948688
  O       1.369547      2.415986      0.246653
  O       0.535673      0.922357      1.677859
  C       0.941567      2.101654      1.359727
  C       0.897401      3.109390      2.472154
  H       0.857472      4.120146      2.075349
  H       1.808854      3.020890      3.066751
  H       0.056750      2.935559      3.140245
  H       3.229926     -1.921860      0.694932
  H       1.566003     -2.870743     -1.223082
