! Opt PBEh-3c
%geom Constraints
{ B 0 20 2.6 C }
{ B 24 30 1.5 C }
    end
end
%output 
xyzfile=True 
end 
%scf 
maxiter 250 
end
%output
Print[P_Hirshfeld] = 1
end
% maxcore
4000
%pal nprocs 8
end
*xyz 1 1
Ir   0.58647000  -0.72605000   0.67088000 
C   -0.03532000  -2.66547000   1.28626000 
C    0.54903000  -1.99193000   2.40125000 
C    2.15034000  -2.20377000   0.77386000 
C    0.95465000  -2.79712000   0.26295000 
C    1.91512000  -1.70980000   2.08138000 
N   -1.03979000  -0.11902000  -0.49958000 
C   -2.42468000  -0.07143000   0.01446000 
C   -2.81354000   1.32885000   0.47253000 
H   -3.84911000   1.31439000   0.81124000 
H   -2.74425000   2.04559000  -0.34715000 
H   -2.19835000   1.68013000   1.29543000 
C   -3.42136000  -0.60629000  -1.00840000 
H   -2.43383000  -0.73247000   0.88084000 
H   -4.38089000  -0.76336000  -0.52069000 
H   -3.60043000   0.09879000  -1.82124000 
H   -3.10326000  -1.55627000  -1.43905000 
C   -0.82053000   0.20253000  -1.71954000 
C    0.50570000   0.18582000  -2.23635000 
H   -1.64285000   0.46384000  -2.37833000 
C    1.64818000   0.17371000  -1.45195000 
C    2.78663000  -0.02136000  -2.29616000 
S    0.80691000   0.02436000  -3.91455000 
C    2.47738000  -0.09910000  -3.62752000 
H    1.78238000   0.89277000  -0.43425000 
H    3.81569000  -0.03746000  -1.96710000 
H    3.15103000  -0.20251000  -4.46779000 
H   -1.05660000  -3.01727000   1.24136000 
H    0.05439000  -1.76025000   3.33499000 
H    2.63311000  -1.22371000   2.72467000 
O    1.86922000   1.90132000   0.57338000 
O    0.16502000   1.02749000   1.67688000 
C    0.94424000   2.00026000   1.38963000 
C    0.73164000   3.32081000   2.06139000 
H    0.73103000   4.09199000   1.29258000 
H    1.58118000   3.52911000   2.71209000 
H   -0.18296000   3.38040000   2.64257000 
H    3.07574000  -2.08904000   0.22776000 
H    0.83204000  -3.26929000  -0.69799000 
*
