39
Generated by autodE on: 2023-08-15. E = -1288.402118 Ha
Ir    0.60844  -0.72934   0.44949
C     0.11810  -2.83758   0.35551
C    -0.06413  -2.37165   1.70579
C     2.15912  -2.08457   1.13550
C     1.47398  -2.66155   0.00820
C     1.20574  -1.93670   2.17341
N    -1.05986   0.11991  -0.50765
C    -2.33776   0.33180   0.19082
C    -3.12957   1.52388  -0.32787
H    -3.96253   1.71357   0.34737
H    -3.56233   1.34954  -1.31389
H    -2.52525   2.43053  -0.36446
C    -3.16212  -0.94964   0.13729
H    -2.06409   0.53176   1.22778
H    -4.07367  -0.82918   0.72126
H    -3.45153  -1.18832  -0.88696
H    -2.62202  -1.80217   0.54587
C    -0.90259   0.44708  -1.73699
C     0.41754   0.28116  -2.27034
H    -1.71433   0.85570  -2.33083
C     1.48484   0.14161  -1.38802
C     2.68523  -0.12140  -2.11131
S     0.86663   0.12505  -3.90154
C     2.49806  -0.15063  -3.46061
H     1.63302   1.15121  -0.59255
H     3.65793  -0.22437  -1.65266
H     3.24188  -0.29975  -4.22851
H    -0.64600  -3.25665  -0.28289
H    -0.97272  -2.41369   2.28708
H     1.39775  -1.49564   3.14142
O     1.72781   2.29144   0.16356
O     0.54784   1.01397   1.55151
C     1.11888   2.10708   1.23296
C     1.06180   3.21783   2.23969
H     0.94329   4.17762   1.74189
H     2.00814   3.25163   2.78218
H     0.26211   3.06822   2.95958
H     3.21304  -1.86307   1.20254
H     1.91867  -2.91552  -0.94290
