39
Coordinates from ORCA-job reaction4-IEIP_ts_guess_scan_10-7_orca E -1288.401067885454
  Ir      0.618088     -0.714320      0.428312
  C       0.128129     -2.825184      0.324887
  C      -0.013197     -2.366695      1.682023
  C       2.191627     -2.073751      1.045093
  C       1.470476     -2.642364     -0.065772
  C       1.273697     -1.934997      2.114515
  N      -1.059126      0.133390     -0.516780
  C      -2.328935      0.367812      0.188735
  C      -3.122574      1.547124     -0.354974
  H      -3.948539      1.757928      0.322758
  H      -3.565778      1.346082     -1.331240
  H      -2.516703      2.450917     -0.422713
  C      -3.155941     -0.913124      0.180201
  H      -2.042143      0.594007      1.216633
  H      -4.059928     -0.773583      0.771522
  H      -3.458429     -1.179693     -0.833323
  H      -2.612184     -1.754322      0.607104
  C      -0.906812      0.429085     -1.748578
  C       0.416320      0.242423     -2.259356
  H      -1.713535      0.827140     -2.356368
  C       1.477316      0.173778     -1.357217
  C       2.685940     -0.122876     -2.057824
  S       0.876353     -0.030163     -3.870001
  C       2.509185     -0.254037     -3.400793
  H       1.573362      1.159032     -0.588258
  H       3.656853     -0.176843     -1.587148
  H       3.259335     -0.447761     -4.152435
  H      -0.657147     -3.237038     -0.292294
  H      -0.903546     -2.414193      2.290600
  H       1.496408     -1.501607      3.079374
  O       1.631588      2.341819      0.158485
  O       0.546841      0.999066      1.562405
  C       1.070312      2.120540      1.241115
  C       1.007539      3.200218      2.282515
  H       0.979033      4.182438      1.817757
  H       1.910439      3.152241      2.893995
  H       0.153277      3.072325      2.942522
  H       3.246288     -1.847700      1.077643
  H       1.885481     -2.887923     -1.032381
39
Coordinates from ORCA-job reaction4-IEIP_ts_guess_scan_10-7_orca E -1288.401057654370
  Ir      0.616443     -0.707005      0.423817
  C       0.131882     -2.821563      0.324461
  C      -0.009940     -2.363919      1.681720
  C       2.192845     -2.063533      1.043790
  C       1.473547     -2.635457     -0.066459
  C       1.274506     -1.927075      2.112866
  N      -1.066347      0.133155     -0.518781
  C      -2.335732      0.367197      0.187779
  C      -3.132263      1.543060     -0.359183
  H      -3.958280      1.754194      0.318348
  H      -3.575510      1.337900     -1.334582
  H      -2.528469      2.448018     -0.430201
  C      -3.160208     -0.915349      0.184224
  H      -2.048497      0.597328      1.214699
  H      -4.063954     -0.775764      0.775898
  H      -3.463122     -1.185817     -0.828154
  H      -2.614398     -1.754083      0.613342
  C      -0.913444      0.424572     -1.756378
  C       0.412735      0.239293     -2.270100
  H      -1.721501      0.818360     -2.365132
  C       1.472821      0.174493     -1.366346
  C       2.682595     -0.124271     -2.064542
  S       0.875028     -0.037517     -3.879392
  C       2.507417     -0.260890     -3.407128
  H       1.573320      1.183217     -0.615835
  H       3.653271     -0.174627     -1.592792
  H       3.258662     -0.457417     -4.156849
  H      -0.652165     -3.236667     -0.292143
  H      -0.899599     -2.414507      2.290955
  H       1.496029     -1.492814      3.077605
  O       1.703361      2.311813      0.202310
  O       0.532740      1.005734      1.563846
  C       1.091918      2.113840      1.262349
  C       1.012678      3.200556      2.294926
  H       1.025710      4.180600      1.824816
  H       1.889047      3.135210      2.942345
  H       0.129895      3.095973      2.920479
  H       3.247034     -1.835360      1.076745
  H       1.889316     -2.881685     -1.032581
39
Coordinates from ORCA-job reaction4-IEIP_ts_guess_scan_10-7_orca E -1288.400272862286
  Ir      0.626466     -0.713088      0.424461
  C       0.131979     -2.829704      0.320681
  C      -0.006075     -2.381317      1.681192
  C       2.195204     -2.082824      1.041626
  C       1.473865     -2.647148     -0.070761
  C       1.277480     -1.949164      2.111460
  N      -1.056147      0.139018     -0.506475
  C      -2.324310      0.374341      0.201408
  C      -3.112858      1.559369     -0.337316
  H      -3.939203      1.769506      0.340060
  H      -3.554790      1.364826     -1.315511
  H      -2.503864      2.461532     -0.399454
  C      -3.156442     -0.903083      0.185818
  H      -2.037101      0.593976      1.230642
  H      -4.060187     -0.763323      0.777445
  H      -3.459644     -1.163047     -0.829246
  H      -2.616232     -1.748718      0.608422
  C      -0.894683      0.443244     -1.749999
  C       0.436145      0.253372     -2.272383
  H      -1.699976      0.847827     -2.355213
  C       1.493334      0.156286     -1.366581
  C       2.698920     -0.160827     -2.065251
  S       0.897918     -0.012870     -3.883556
  C       2.524490     -0.278204     -3.409521
  H       1.635348      1.192335     -0.632126
  H       3.667643     -0.234264     -1.592154
  H       3.273734     -0.482306     -4.159056
  H      -0.653851     -3.239841     -0.297045
  H      -0.894600     -2.433375      2.291719
  H       1.501217     -1.521456      3.078597
  O       1.509544      2.358387      0.132397
  O       0.536919      0.996805      1.584360
  C       1.015792      2.129723      1.247442
  C       0.974315      3.211695      2.286127
  H       0.891280      4.190566      1.820583
  H       1.908973      3.194355      2.849601
  H       0.159794      3.059995      2.989504
  H       3.250641     -1.860866      1.076525
  H       1.888328     -2.892544     -1.037678
39
Coordinates from ORCA-job reaction4-IEIP_ts_guess_scan_10-7_orca E -1288.401381270784
  Ir      0.617896     -0.714762      0.427075
  C       0.122223     -2.828357      0.334291
  C      -0.014198     -2.370671      1.691830
  C       2.187726     -2.078940      1.047946
  C       1.463987     -2.648907     -0.060174
  C       1.271698     -1.937704      2.118683
  N      -1.061939      0.131919     -0.513101
  C      -2.331955      0.364228      0.191314
  C      -3.124575      1.544521     -0.351741
  H      -3.952703      1.753305      0.323956
  H      -3.564433      1.345451     -1.329936
  H      -2.518976      2.448787     -0.415582
  C      -3.158467     -0.916942      0.178268
  H      -2.046747      0.587887      1.220157
  H      -4.063483     -0.779291      0.768463
  H      -3.459222     -1.181100     -0.836399
  H      -2.614989     -1.758949      0.603981
  C      -0.905695      0.432300     -1.750342
  C       0.421673      0.250048     -2.267587
  H      -1.712831      0.832876     -2.355720
  C       1.479438      0.162947     -1.362471
  C       2.690284     -0.130737     -2.061894
  S       0.886358     -0.006720     -3.879170
  C       2.518058     -0.241201     -3.407273
  H       1.589114      1.173900     -0.604542
  H       3.659541     -0.192728     -1.588561
  H       3.270544     -0.426809     -4.158568
  H      -0.664962     -3.240803     -0.280084
  H      -0.902539     -2.417174      2.303226
  H       1.497091     -1.503623      3.082592
  O       1.621271      2.351844      0.151377
  O       0.548196      1.003096      1.561897
  C       1.067520      2.125270      1.238902
  C       1.010172      3.204111      2.280234
  H       0.972634      4.186412      1.816224
  H       1.919209      3.160127      2.882833
  H       0.162709      3.071412      2.947797
  H       3.243173     -1.856577      1.079417
  H       1.876570     -2.899256     -1.026581
39
Coordinates from ORCA-job reaction4-IEIP_ts_guess_scan_10-7_orca E -1288.401423455164
  Ir      0.618006     -0.714334      0.427344
  C       0.121754     -2.827379      0.336894
  C      -0.015292     -2.369262      1.694021
  C       2.187033     -2.078147      1.050971
  C       1.463900     -2.648743     -0.057020
  C       1.270315     -1.936088      2.121040
  N      -1.061235      0.131350     -0.514414
  C      -2.331573      0.362624      0.189858
  C      -3.125693      1.542247     -0.352562
  H      -3.953778      1.750065      0.323482
  H      -3.565784      1.342923     -1.330578
  H      -2.521011      2.447117     -0.416463
  C      -3.157154     -0.919214      0.177336
  H      -2.046333      0.586491      1.218736
  H      -4.062248     -0.782123      0.767572
  H      -3.457726     -1.183888     -0.837242
  H      -2.612961     -1.760614      0.603277
  C      -0.905982      0.433006     -1.750191
  C       0.419795      0.251656     -2.268549
  H      -1.713727      0.834129     -2.354312
  C       1.477771      0.160801     -1.364315
  C       2.687942     -0.130853     -2.065275
  S       0.884668      0.009038     -3.882132
  C       2.514619     -0.237713     -3.410864
  H       1.588993      1.175851     -0.612101
  H       3.657060     -0.197716     -1.592461
  H       3.266188     -0.423544     -4.163018
  H      -0.665136     -3.240028     -0.277695
  H      -0.904110     -2.414829      2.304806
  H       1.495309     -1.501221      3.084698
  O       1.644233      2.341050      0.162017
  O       0.546645      1.003676      1.561102
  C       1.074248      2.122093      1.242569
  C       1.010527      3.204764      2.279989
  H       0.983449      4.185864      1.812690
  H       1.912395      3.158023      2.893088
  H       0.154791      3.078581      2.938236
  H       3.242558     -1.856265      1.083147
  H       1.876913     -2.900197     -1.022943
39
Coordinates from ORCA-job reaction4-IEIP_ts_guess_scan_10-7_orca E -1288.401454211024
  Ir      0.617390     -0.716776      0.429014
  C       0.117136     -2.828729      0.343958
  C      -0.018980     -2.369052      1.700486
  C       2.183681     -2.082154      1.056368
  C       1.459721     -2.653301     -0.050591
  C       1.266986     -1.936887      2.126226
  N      -1.060734      0.130400     -0.514438
  C      -2.332220      0.358867      0.188964
  C      -3.127777      1.538392     -0.351634
  H      -3.956544      1.743675      0.324305
  H      -3.567081      1.340284     -1.330255
  H      -2.524380      2.444274     -0.413477
  C      -3.156439     -0.923879      0.173694
  H      -2.048242      0.581204      1.218578
  H      -4.062425     -0.788623      0.762984
  H      -3.455411     -1.187464     -0.841644
  H      -2.611868     -1.765222      0.599170
  C      -0.904903      0.436754     -1.748878
  C       0.419843      0.256380     -2.268914
  H      -1.712904      0.839727     -2.351424
  C       1.477014      0.153886     -1.364891
  C       2.687297     -0.132123     -2.067878
  S       0.885093      0.028330     -3.884333
  C       2.515468     -0.219240     -3.415152
  H       1.592580      1.172795     -0.615015
  H       3.655854     -0.206157     -1.595048
  H       3.267707     -0.395008     -4.169059
  H      -0.670419     -3.241086     -0.269976
  H      -0.907938     -2.411787      2.311248
  H       1.492849     -1.500607      3.089053
  O       1.656914      2.335760      0.161757
  O       0.549733      1.004929      1.558913
  C       1.082187      2.120342      1.240879
  C       1.015400      3.207488      2.273606
  H       0.990135      4.186703      1.802242
  H       1.915331      3.163066      2.889686
  H       0.157474      3.084253      2.929558
  H       3.239676     -1.862567      1.088638
  H       1.872165     -2.907656     -1.015982
39
Coordinates from ORCA-job reaction4-IEIP_ts_guess_scan_10-7_orca E -1288.401492066303
  Ir      0.615126     -0.723405      0.432771
  C       0.106376     -2.832641      0.361446
  C      -0.028708     -2.368579      1.716302
  C       2.175115     -2.091076      1.071005
  C       1.450252     -2.664443     -0.033750
  C       1.257625     -1.937896      2.139667
  N      -1.059761      0.126895     -0.514681
  C      -2.333751      0.348267      0.186968
  C      -3.132749      1.527606     -0.349015
  H      -3.962978      1.726626      0.326893
  H      -3.570345      1.332603     -1.329056
  H      -2.532484      2.435921     -0.405859
  C      -3.154533     -0.936652      0.164426
  H      -2.052821      0.566675      1.218370
  H      -4.062948     -0.805852      0.750960
  H      -3.449146     -1.197459     -0.852911
  H      -2.609368     -1.777981      0.588953
  C      -0.901937      0.447618     -1.745347
  C       0.421296      0.272720     -2.268903
  H      -1.709932      0.857866     -2.342980
  C       1.475689      0.136980     -1.365637
  C       2.686191     -0.135091     -2.073809
  S       0.890820      0.098480     -3.889337
  C       2.517313     -0.178224     -3.423769
  H       1.603658      1.162362     -0.616781
  H       3.652655     -0.233187     -1.601136
  H       3.270148     -0.336355     -4.180992
  H      -0.682060     -3.245057     -0.251322
  H      -0.918415     -2.404556      2.326342
  H       1.484720     -1.497470      3.100335
  O       1.674430      2.329959      0.152445
  O       0.556028      1.008515      1.550815
  C       1.092664      2.119652      1.230030
  C       1.029412      3.213085      2.256569
  H       1.003136      4.189425      1.779347
  H       1.931240      3.172346      2.870093
  H       0.173217      3.094009      2.915484
  H       3.232079     -1.876419      1.104209
  H       1.862114     -2.926076     -0.997406
39
Coordinates from ORCA-job reaction4-IEIP_ts_guess_scan_10-7_orca E -1288.401495882371
  Ir      0.614995     -0.726226      0.433116
  C       0.104501     -2.834493      0.364278
  C      -0.032201     -2.368820      1.718495
  C       2.172956     -2.093997      1.076116
  C       1.449312     -2.668124     -0.028998
  C       1.253917     -1.938585      2.143207
  N      -1.058326      0.125979     -0.514633
  C      -2.331871      0.346818      0.187819
  C      -3.131364      1.526106     -0.347435
  H      -3.961020      1.724789      0.329267
  H      -3.569728      1.331189     -1.327160
  H      -2.531350      2.434573     -0.404586
  C      -3.152521     -0.938123      0.165024
  H      -2.050545      0.565109      1.219141
  H      -4.061393     -0.807107      0.750820
  H      -3.446352     -1.199206     -0.852449
  H      -2.607871     -1.779437      0.590201
  C      -0.900435      0.451562     -1.744080
  C       0.422099      0.277164     -2.268748
  H      -1.708123      0.865151     -2.339726
  C       1.475960      0.130967     -1.366623
  C       2.686002     -0.137169     -2.076870
  S       0.891846      0.117356     -3.890639
  C       2.517486     -0.166522     -3.427372
  H       1.608983      1.156041     -0.615921
  H       3.652083     -0.242592     -1.604954
  H       3.270297     -0.318797     -4.185819
  H      -0.683168     -3.247161     -0.249288
  H      -0.922894     -2.403086      2.327192
  H       1.480065     -1.496909      3.103528
  O       1.675845      2.326675      0.149027
  O       0.555539      1.007452      1.548171
  C       1.093900      2.117536      1.226960
  C       1.028143      3.213500      2.250511
  H       0.998460      4.188291      1.770297
  H       1.930773      3.177352      2.863107
  H       0.172901      3.093809      2.910506
  H       3.230069     -1.880286      1.110864
  H       1.862401     -2.931590     -0.991607
39
Coordinates from ORCA-job reaction4-IEIP_ts_guess_scan_10-7_orca E -1288.401495971831
  Ir      0.614565     -0.727340      0.432900
  C       0.104393     -2.835402      0.365462
  C      -0.035188     -2.367762      1.718881
  C       2.171513     -2.094178      1.081066
  C       1.450183     -2.669619     -0.024890
  C       1.250220     -1.937248      2.145983
  N      -1.058265      0.125784     -0.515124
  C      -2.331673      0.345532      0.187972
  C      -3.132513      1.524078     -0.346927
  H      -3.961818      1.721987      0.330444
  H      -3.571402      1.328670     -1.326319
  H      -2.533470      2.433167     -0.404524
  C      -3.151371     -0.939963      0.165007
  H      -2.050268      0.564194      1.219163
  H      -4.060940     -0.809195      0.749799
  H      -3.444017     -1.201721     -0.852619
  H      -2.606850     -1.780860      0.591094
  C      -0.900157      0.455066     -1.743748
  C       0.422004      0.280450     -2.268972
  H      -1.707481      0.870923     -2.338195
  C       1.475687      0.127225     -1.368014
  C       2.685228     -0.138526     -2.079692
  S       0.891493      0.128678     -3.891891
  C       2.516653     -0.159280     -3.430475
  H       1.612902      1.150542     -0.614240
  H       3.651179     -0.248552     -1.608528
  H       3.269392     -0.307915     -4.189708
  H      -0.681748     -3.249134     -0.249328
  H      -0.927098     -2.401310      2.325836
  H       1.474421     -1.494308      3.106176
  O       1.680900      2.322295      0.148894
  O       0.553046      1.007860      1.546339
  C       1.094278      2.116719      1.224962
  C       1.030558      3.213300      2.247809
  H       1.001029      4.187552      1.766456
  H       1.934034      3.177241      2.859158
  H       0.176025      3.094967      2.908907
  H       3.228540     -1.880363      1.117860
  H       1.865387     -2.934363     -0.986235
39
Coordinates from ORCA-job reaction4-IEIP_ts_guess_scan_10-7_orca E -1288.401491915038
  Ir      0.614174     -0.727383      0.432141
  C       0.105718     -2.835748      0.364960
  C      -0.038203     -2.365850      1.717393
  C       2.170474     -2.092681      1.086303
  C       1.452697     -2.669706     -0.021132
  C       1.245946     -1.934744      2.148225
  N      -1.058797      0.126461     -0.515462
  C      -2.332191      0.344382      0.188343
  C      -3.135100      1.521854     -0.345944
  H      -3.964203      1.718297      0.332108
  H      -3.574326      1.325894     -1.325075
  H      -2.537649      2.431991     -0.403700
  C      -3.150313     -0.942060      0.164633
  H      -2.050870      0.563346      1.219450
  H      -4.060848     -0.812145      0.748140
  H      -3.441332     -1.204334     -0.853318
  H      -2.605726     -1.782464      0.591509
  C      -0.900496      0.459483     -1.743294
  C       0.421309      0.284314     -2.269173
  H      -1.707400      0.877788     -2.336491
  C       1.475206      0.124773     -1.369957
  C       2.683752     -0.140132     -2.083169
  S       0.889928      0.139191     -3.893289
  C       2.514096     -0.155861     -3.434041
  H       1.617670      1.144140     -0.610658
  H       3.649754     -0.254558     -1.613146
  H       3.266182     -0.303725     -4.194064
  H      -0.678075     -3.251146     -0.251682
  H      -0.931701     -2.399446      2.322013
  H       1.467067     -1.490598      3.108570
  O       1.693715      2.315084      0.152957
  O       0.550059      1.008671      1.544950
  C       1.099978      2.114383      1.225858
  C       1.033269      3.213194      2.245853
  H       1.004905      4.186096      1.761586
  H       1.935373      3.179058      2.859284
  H       0.177047      3.096674      2.905009
  H       3.227231     -1.878037      1.125941
  H       1.871052     -2.935269     -0.980892
39
Coordinates from ORCA-job reaction4-IEIP_ts_guess_scan_10-7_orca E -1288.401491101098
  Ir      0.613530     -0.725382      0.431489
  C       0.108059     -2.834726      0.363433
  C      -0.039660     -2.363744      1.715195
  C       2.170219     -2.088724      1.089470
  C       1.455738     -2.667128     -0.019280
  C       1.242969     -1.931391      2.149109
  N      -1.060011      0.127440     -0.515583
  C      -2.333755      0.343711      0.187939
  C      -3.138076      1.520251     -0.346351
  H      -3.967699      1.715342      0.331435
  H      -3.576592      1.323869     -1.325722
  H      -2.541936      2.431277     -0.403582
  C      -3.150373     -0.943683      0.163195
  H      -2.053017      0.562815      1.219180
  H      -4.061645     -0.815012      0.745840
  H      -3.440135     -1.205939     -0.855123
  H      -2.605347     -1.783723      0.590215
  C      -0.901763      0.461018     -1.743250
  C       0.419796      0.285633     -2.269551
  H      -1.708747      0.879579     -2.336177
  C       1.474172      0.125523     -1.371386
  C       2.681862     -0.141027     -2.085127
  S       0.886933      0.138303     -3.894157
  C       2.511071     -0.157617     -3.435916
  H       1.619970      1.141708     -0.608409
  H       3.648162     -0.255701     -1.615813
  H       3.262596     -0.306967     -4.196206
  H      -0.673631     -3.251794     -0.254734
  H      -0.934304     -2.398578      2.318056
  H       1.461163     -1.486657      3.109850
  O       1.703981      2.310250      0.158046
  O       0.547335      1.010057      1.544757
  C       1.104149      2.113208      1.228008
  C       1.038175      3.212276      2.247710
  H       1.011378      4.185039      1.762988
  H       1.940035      3.177471      2.861456
  H       0.181421      3.097183      2.906358
  H       3.226579     -1.872559      1.131332
  H       1.876769     -2.932409     -0.977957
39
Coordinates from ORCA-job reaction4-IEIP_ts_guess_scan_10-7_orca E -1288.401491904951
  Ir      0.612790     -0.723262      0.431342
  C       0.110586     -2.833851      0.362246
  C      -0.040479     -2.362765      1.713629
  C       2.170167     -2.084598      1.092275
  C       1.458749     -2.664252     -0.017659
  C       1.240462     -1.928709      2.150082
  N      -1.061579      0.127869     -0.515589
  C      -2.335966      0.342637      0.187123
  C      -3.140746      1.519229     -0.346404
  H      -3.971150      1.712867      0.330814
  H      -3.578179      1.323648     -1.326418
  H      -2.545223      2.430753     -0.401962
  C      -3.151797     -0.945267      0.160178
  H      -2.056121      0.560726      1.218851
  H      -4.063497     -0.818133      0.742488
  H      -3.440815     -1.206128     -0.858721
  H      -2.606442     -1.785641      0.586128
  C      -0.903353      0.460773     -1.743331
  C       0.418064      0.285967     -2.269940
  H      -1.710662      0.878635     -2.336361
  C       1.472775      0.126880     -1.372207
  C       2.679977     -0.141370     -2.086105
  S       0.884126      0.135473     -3.894686
  C       2.508377     -0.160113     -3.436774
  H       1.621059      1.141239     -0.607148
  H       3.646562     -0.255040     -1.617156
  H       3.259549     -0.311068     -4.197103
  H      -0.669219     -3.252434     -0.257268
  H      -0.936055     -2.399306      2.315006
  H       1.455902     -1.483677      3.111309
  O       1.711394      2.307795      0.161608
  O       0.546099      1.011950      1.544965
  C       1.108236      2.112856      1.230022
  C       1.044363      3.211969      2.249893
  H       1.016588      4.184765      1.765229
  H       1.947666      3.177495      2.861535
  H       0.188970      3.096947      2.910277
  H       3.226119     -1.866849      1.136105
  H       1.882074     -2.928820     -0.975533
39
Coordinates from ORCA-job reaction4-IEIP_ts_guess_scan_10-7_orca E -1288.401493604024
  Ir      0.612036     -0.721935      0.431467
  C       0.112827     -2.833493      0.361166
  C      -0.041730     -2.362969      1.712352
  C       2.169765     -2.081265      1.095632
  C       1.461590     -2.662006     -0.015667
  C       1.237391     -1.927080      2.151526
  N      -1.062759      0.127610     -0.515549
  C      -2.337550      0.341384      0.186632
  C      -3.141935      1.518888     -0.345452
  H      -3.972824      1.711447      0.331459
  H      -3.578670      1.324959     -1.326105
  H      -2.546228      2.430399     -0.399072
  C      -3.153325     -0.946538      0.157223
  H      -2.058298      0.557780      1.218900
  H      -4.064972     -0.820809      0.739912
  H      -3.442415     -1.205234     -0.862220
  H      -2.607717     -1.787761      0.581234
  C      -0.904745      0.459699     -1.743432
  C       0.416534      0.285817     -2.270358
  H      -1.712511      0.876675     -2.336531
  C       1.471384      0.127427     -1.372752
  C       2.678420     -0.141530     -2.086795
  S       0.882033      0.133825     -3.895127
  C       2.506447     -0.161139     -3.437393
  H       1.621836      1.141181     -0.606953
  H       3.645183     -0.254400     -1.618021
  H       3.257484     -0.312559     -4.197769
  H      -0.665040     -3.253279     -0.259961
  H      -0.938441     -2.401122      2.311932
  H       1.449932     -1.481830      3.113302
  O       1.715775      2.306701      0.162942
  O       0.545463      1.013542      1.544593
  C       1.111037      2.112781      1.230746
  C       1.049620      3.211993      2.250770
  H       1.017794      4.184672      1.766069
  H       1.955937      3.179738      2.858060
  H       0.197422      3.095504      2.914975
  H       3.225336     -1.862165      1.141737
  H       1.887286     -2.925717     -0.972732
39
Coordinates from ORCA-job reaction4-IEIP_ts_guess_scan_10-7_orca E -1288.401496188779
  Ir      0.611284     -0.721286      0.431837
  C       0.115980     -2.833759      0.359297
  C      -0.043875     -2.364533      1.710367
  C       2.169098     -2.077913      1.100998
  C       1.465799     -2.659850     -0.012600
  C       1.232619     -1.926217      2.153921
  N      -1.063923      0.126651     -0.515365
  C      -2.338908      0.339669      0.186668
  C      -3.141836      1.519363     -0.342690
  H      -3.972959      1.710930      0.334208
  H      -3.578155      1.328598     -1.324144
  H      -2.545009      2.430289     -0.393486
  C      -3.155554     -0.947635      0.153578
  H      -2.060058      0.553102      1.219666
  H      -4.066662     -0.823491      0.737439
  H      -3.445556     -1.202625     -0.866550
  H      -2.609914     -1.790617      0.574123
  C      -0.906417      0.457919     -1.743456
  C       0.414705      0.285100     -2.270787
  H      -1.714809      0.873780     -2.336544
  C       1.469707      0.127126     -1.373269
  C       2.676726     -0.141666     -2.087622
  S       0.879843      0.132943     -3.895575
  C       2.504498     -0.161259     -3.438168
  H       1.622705      1.140833     -0.607377
  H       3.643654     -0.253873     -1.619013
  H       3.255454     -0.312277     -4.198707
  H      -0.658981     -3.254877     -0.264548
  H      -0.942528     -2.404688      2.306895
  H       1.440839     -1.480815      3.116576
  O       1.719466      2.305883      0.162881
  O       0.545077      1.015227      1.543538
  C       1.113651      2.112839      1.230434
  C       1.054839      3.212571      2.250153
  H       1.014016      4.184628      1.764789
  H       1.966587      3.186085      2.849534
  H       0.208711      3.092434      2.921367
  H       3.224163     -1.857240      1.150827
  H       1.895093     -2.922158     -0.968455
39
Coordinates from ORCA-job reaction4-IEIP_ts_guess_scan_10-7_orca E -1288.401498713223
  Ir      0.610871     -0.721550      0.432342
  C       0.119742     -2.834564      0.356139
  C      -0.046960     -2.367334      1.707201
  C       2.168167     -2.075342      1.107871
  C       1.471089     -2.658112     -0.009007
  C       1.226342     -1.926640      2.156831
  N      -1.064600      0.125321     -0.514816
  C      -2.339426      0.337935      0.187699
  C      -3.140049      1.520885     -0.337825
  H      -3.971048      1.711662      0.339457
  H      -3.576373      1.334513     -1.320113
  H      -2.541306      2.430722     -0.385256
  C      -3.157777     -0.948155      0.150131
  H      -2.060602      0.547475      1.221476
  H      -4.067827     -0.825628      0.735973
  H      -3.449587     -1.198285     -0.870687
  H      -2.612284     -1.793639      0.565928
  C      -0.907954      0.455944     -1.743165
  C       0.412998      0.283773     -2.271002
  H      -1.717013      0.870751     -2.336110
  C       1.468262      0.125969     -1.373675
  C       2.675291     -0.141998     -2.088527
  S       0.877852      0.132563     -3.895851
  C       2.502815     -0.160920     -3.439035
  H       1.623624      1.140099     -0.608449
  H       3.642373     -0.253855     -1.620125
  H       3.253634     -0.310969     -4.199900
  H      -0.651509     -3.256803     -0.271526
  H      -0.948357     -2.409506      2.299431
  H       1.429104     -1.481405      3.120726
  O       1.722032      2.305279      0.161402
  O       0.545162      1.016517      1.541870
  C       1.115523      2.113008      1.228909
  C       1.058195      3.213796      2.247614
  H       1.003195      4.184482      1.760771
  H       1.977272      3.197278      2.836037
  H       0.220770      3.087618      2.928472
  H       3.222668     -1.853249      1.162834
  H       1.905063     -2.918446     -0.963306
39
Coordinates from ORCA-job reaction4-IEIP_ts_guess_scan_10-7_orca E -1288.401500798021
  Ir      0.611191     -0.722735      0.432941
  C       0.123887     -2.835811      0.351661
  C      -0.050489     -2.371067      1.702829
  C       2.167270     -2.074206      1.115379
  C       1.477084     -2.657085     -0.005515
  C       1.219414     -1.928653      2.159749
  N      -1.064565      0.124014     -0.513688
  C      -2.338920      0.336614      0.189844
  C      -3.136638      1.523501     -0.331207
  H      -3.967271      1.713712      0.346705
  H      -3.573217      1.342280     -1.314335
  H      -2.535469      2.431914     -0.374974
  C      -3.159709     -0.947736      0.147357
  H      -2.059791      0.541777      1.224369
  H      -4.068400     -0.826608      0.735597
  H      -3.453874     -1.192387     -0.874111
  H      -2.614719     -1.796229      0.557737
  C      -0.909018      0.454291     -1.742304
  C       0.411744      0.281977     -2.270765
  H      -1.718627      0.868451     -2.334940
  C       1.467491      0.124202     -1.373866
  C       2.674389     -0.142715     -2.089433
  S       0.876151      0.132160     -3.895772
  C       2.501479     -0.160833     -3.439889
  H       1.624382      1.139085     -0.609999
  H       3.641655     -0.254531     -1.621375
  H       3.251974     -0.309858     -4.201268
  H      -0.643228     -3.258752     -0.280572
  H      -0.955158     -2.414964      2.289926
  H       1.416189     -1.484133      3.125211
  O       1.722977      2.304982      0.158742
  O       0.546166      1.017022      1.540113
  C       1.116353      2.113312      1.226415
  C       1.058508      3.215689      2.243337
  H       0.984633      4.184098      1.754272
  H       1.986024      3.213330      2.818553
  H       0.231922      3.081235      2.935642
  H       3.221226     -1.851170      1.176447
  H       1.916358     -2.914981     -0.958070
39
Coordinates from ORCA-job reaction4-IEIP_ts_guess_scan_10-7_orca E -1288.401501692607
  Ir      0.612205     -0.724103      0.433363
  C       0.126753     -2.836818      0.347529
  C      -0.053195     -2.373960      1.698828
  C       2.166690     -2.074875      1.120660
  C       1.481431     -2.657065     -0.003458
  C       1.214385     -1.931322      2.161521
  N      -1.063783      0.123542     -0.512283
  C      -2.337657      0.336273      0.192213
  C      -3.133341      1.525989     -0.325572
  H      -3.963675      1.715788      0.352839
  H      -3.570117      1.348501     -1.309286
  H      -2.530519      2.433431     -0.366708
  C      -3.160371     -0.946686      0.146220
  H      -2.058142      0.538386      1.227190
  H      -4.068117     -0.826344      0.736087
  H      -3.456199     -1.187513     -0.875669
  H      -2.615993     -1.797402      0.552838
  C      -0.909060      0.453936     -1.741036
  C       0.411501      0.280741     -2.270121
  H      -1.718842      0.868291     -2.333264
  C       1.467812      0.122671     -1.373849
  C       2.674340     -0.143789     -2.090155
  S       0.875209      0.131858     -3.895388
  C       2.500794     -0.161387     -3.440541
  H       1.624759      1.138244     -0.611342
  H       3.641788     -0.256003     -1.622553
  H       3.250799     -0.310053     -4.202467
  H      -0.637377     -3.259820     -0.288256
  H      -0.960401     -2.418585      2.281953
  H       1.406930     -1.487882      3.128326
  O       1.722233      2.305033      0.156188
  O       0.547992      1.016539      1.539227
  C       1.116111      2.113606      1.224155
  C       1.055917      3.217475      2.239237
  H       0.965238      4.183497      1.748098
  H       1.989879      3.228417      2.803766
  H       0.238402      3.075458      2.940643
  H       3.220344     -1.851809      1.186522
  H       1.924646     -2.913068     -0.954713
39
Coordinates from ORCA-job reaction4-IEIP_ts_guess_scan_10-7_orca E -1288.401502240625
  Ir      0.613464     -0.725019      0.433547
  C       0.128239     -2.837384      0.344701
  C      -0.054610     -2.375462      1.696075
  C       2.166544     -2.076291      1.123273
  C       1.483798     -2.657574     -0.002754
  C       1.211846     -1.933539      2.162157
  N      -1.062778      0.123856     -0.511021
  C      -2.336370      0.336703      0.193968
  C      -3.131197      1.527709     -0.322262
  H      -3.961475      1.717168      0.356316
  H      -3.567927      1.351989     -1.306312
  H      -2.527780      2.434824     -0.362023
  C      -3.160121     -0.945506      0.146200
  H      -2.056615      0.537425      1.229136
  H      -4.067600     -0.825345      0.736524
  H      -3.456465     -1.184598     -0.875943
  H      -2.616364     -1.797352      0.551272
  C      -0.908417      0.454587     -1.739770
  C       0.411914      0.280356     -2.269410
  H      -1.718069      0.869731     -2.331601
  C       1.468731      0.121812     -1.373799
  C       2.674734     -0.144975     -2.090736
  S       0.874724      0.131482     -3.894978
  C       2.500431     -0.162549     -3.441033
  H       1.624684      1.137798     -0.612103
  H       3.642362     -0.257734     -1.623641
  H       3.249902     -0.311610     -4.203404
  H      -0.634333     -3.260175     -0.293078
  H      -0.963226     -2.420108      2.277018
  H       1.402265     -1.491153      3.129862
  O       1.720473      2.305328      0.154511
  O       0.550064      1.015509      1.539464
  C       1.115356      2.113759      1.222903
  C       1.052497      3.218617      2.236681
  H       0.949929      4.182828      1.744180
  H       1.990416      3.239302      2.794283
  H       0.241054      3.071027      2.943897
  H       3.220115     -1.853690      1.191919
  H       1.929176     -2.912554     -0.953280
39
Coordinates from ORCA-job reaction4-IEIP_ts_guess_scan_10-7_orca E -1288.401502606926
  Ir      0.614402     -0.725344      0.433582
  C       0.128928     -2.837633      0.343233
  C      -0.055292     -2.375979      1.694580
  C       2.166524     -2.077258      1.124503
  C       1.484946     -2.658016     -0.002452
  C       1.210641     -1.934719      2.162384
  N      -1.062009      0.124449     -0.510194
  C      -2.335547      0.337234      0.194840
  C      -3.130304      1.528552     -0.320840
  H      -3.960700      1.717608      0.357697
  H      -3.566836      1.353382     -1.305075
  H      -2.526969      2.435757     -0.359963
  C      -3.159599     -0.944755      0.146270
  H      -2.055755      0.537473      1.230098
  H      -4.067268     -0.824613      0.736310
  H      -3.455661     -1.183301     -0.876084
  H      -2.616298     -1.797000      0.551095
  C      -0.907691      0.455536     -1.738849
  C       0.412369      0.280655     -2.268965
  H      -1.717153      0.871538     -2.330339
  C       1.469497      0.121411     -1.373880
  C       2.674996     -0.146079     -2.091307
  S       0.874325      0.131494     -3.894808
  C       2.500026     -0.163620     -3.441522
  H       1.624410      1.137581     -0.612360
  H       3.642770     -0.259449     -1.624671
  H       3.249074     -0.313297     -4.204190
  H      -0.632892     -3.260360     -0.295475
  H      -0.964552     -2.420531      2.274532
  H       1.400072     -1.493010      3.130592
  O       1.718897      2.305566      0.153724
  O       0.551771      1.014578      1.540281
  C       1.114827      2.113717      1.222574
  C       1.050318      3.219133      2.235630
  H       0.940080      4.182216      1.742486
  H       1.990699      3.246071      2.788767
  H       0.242822      3.067864      2.946539
  H       3.220078     -1.855026      1.194557
  H       1.931425     -2.912635     -0.952560
