39
Coordinates from ORCA-job reaction4-IEIP_ts_guess_scan_10-4_orca E -1288.399936695796
  Ir      0.628632     -0.708905      0.416439
  C       0.112287     -2.816882      0.326364
  C       0.048889     -2.359607      1.688405
  C       2.217842     -2.089883      0.934882
  C       1.430731     -2.643944     -0.140405
  C       1.365249     -1.945207      2.053186
  N      -1.048546      0.143148     -0.524517
  C      -2.310750      0.410076      0.182548
  C      -3.097098      1.578357     -0.393258
  H      -3.916785      1.818668      0.282398
  H      -3.548359      1.350251     -1.359832
  H      -2.483183      2.473731     -0.493128
  C      -3.146552     -0.864316      0.224573
  H      -2.011938      0.665356      1.200080
  H      -4.046163     -0.695168      0.814657
  H      -3.456367     -1.166651     -0.776612
  H      -2.606300     -1.691789      0.681988
  C      -0.895309      0.403158     -1.763570
  C       0.433657      0.198744     -2.259189
  H      -1.697099      0.789635     -2.385146
  C       1.491808      0.216145     -1.348302
  C       2.710541     -0.107625     -2.021001
  S       0.905785     -0.194673     -3.839424
  C       2.542661     -0.350407     -3.348193
  H       1.516033      1.193977     -0.618610
  H       3.679668     -0.103971     -1.543608
  H       3.299157     -0.588872     -4.080378
  H      -0.711777     -3.214146     -0.248603
  H      -0.808577     -2.399079      2.343137
  H       1.646229     -1.520234      3.006405
  O       1.451097      2.412916      0.150681
  O       0.551636      0.971096      1.588375
  C       0.983442      2.133426      1.259189
  C       0.921662      3.173489      2.341655
  H       0.893064      4.173349      1.917167
  H       1.821548      3.097947      2.955032
  H       0.067182      3.019772      2.996779
  H       3.274040     -1.869631      0.908161
  H       1.791333     -2.893059     -1.127587
39
Coordinates from ORCA-job reaction4-IEIP_ts_guess_scan_10-4_orca E -1288.399836984863
  Ir      0.624567     -0.700805      0.411653
  C       0.115036     -2.812912      0.328105
  C       0.050572     -2.354851      1.689693
  C       2.217460     -2.077089      0.935303
  C       1.432773     -2.636418     -0.138886
  C       1.364051     -1.933554      2.052897
  N      -1.059201      0.141304     -0.528381
  C      -2.321408      0.407138      0.179250
  C      -3.112288      1.569862     -0.401573
  H      -3.932498      1.810290      0.273386
  H      -3.563137      1.335607     -1.366877
  H      -2.501759      2.467056     -0.505960
  C      -3.152679     -0.869933      0.228076
  H      -2.022627      0.668238      1.195315
  H      -4.052126     -0.701348      0.818564
  H      -3.462733     -1.177871     -0.771335
  H      -2.608862     -1.693402      0.688466
  C      -0.905955      0.395050     -1.773528
  C       0.426653      0.193894     -2.271548
  H      -1.709640      0.775052     -2.396597
  C       1.483346      0.217853     -1.358564
  C       2.704874     -0.102948     -2.028368
  S       0.902993     -0.203151     -3.849443
  C       2.540089     -0.351191     -3.354880
  H       1.506486      1.216789     -0.647301
  H       3.673466     -0.091978     -1.549831
  H       3.298860     -0.588910     -4.084866
  H      -0.707524     -3.214582     -0.246001
  H      -0.806352     -2.397069      2.344878
  H       1.643294     -1.506040      3.005483
  O       1.565572      2.381621      0.202117
  O       0.536413      0.980940      1.586940
  C       1.023131      2.126881      1.282632
  C       0.936310      3.173493      2.356683
  H       0.967309      4.171813      1.928673
  H       1.796433      3.069208      3.020783
  H       0.040856      3.052694      2.961972
  H       3.273111     -1.854305      0.909047
  H       1.794502     -2.887231     -1.125236
39
Coordinates from ORCA-job reaction4-IEIP_ts_guess_scan_10-4_orca E -1288.399610004206
  Ir      0.633645     -0.707945      0.413053
  C       0.111201     -2.821053      0.326762
  C       0.050092     -2.371320      1.691101
  C       2.216311     -2.098317      0.936735
  C       1.429825     -2.649938     -0.139758
  C       1.362715     -1.955103      2.054155
  N      -1.049995      0.146985     -0.516084
  C      -2.311620      0.411621      0.192871
  C      -3.096422      1.582625     -0.379549
  H      -3.917681      1.819930      0.295211
  H      -3.545219      1.358845     -1.348321
  H      -2.482418      2.478562     -0.474078
  C      -3.148238     -0.862338      0.228454
  H      -2.013630      0.662095      1.211836
  H      -4.047633     -0.695829      0.819604
  H      -3.458511     -1.159400     -0.774194
  H      -2.608158     -1.692339      0.681405
  C      -0.888767      0.414318     -1.767003
  C       0.448781      0.210350     -2.273414
  H      -1.690074      0.804396     -2.386784
  C       1.503832      0.202233     -1.355973
  C       2.722445     -0.130980     -2.026762
  S       0.924607     -0.170924     -3.854946
  C       2.557868     -0.357036     -3.356953
  H       1.560429      1.225729     -0.658608
  H       3.689935     -0.141118     -1.545665
  H       3.315041     -0.597575     -4.087524
  H      -0.713317     -3.216813     -0.248714
  H      -0.806330     -2.413298      2.346769
  H       1.643698     -1.533169      3.008700
  O       1.379420      2.416041      0.136520
  O       0.548294      0.972547      1.601843
  C       0.952800      2.138930      1.263546
  C       0.907992      3.184435      2.340361
  H       0.849727      4.181221      1.911477
  H       1.827607      3.126956      2.925681
  H       0.076779      3.020265      3.022012
  H       3.273611     -1.883454      0.913353
  H       1.790729     -2.900944     -1.126378
39
Coordinates from ORCA-job reaction4-IEIP_ts_guess_scan_10-4_orca E -1288.400227898526
  Ir      0.626754     -0.709348      0.415886
  C       0.105111     -2.819562      0.337327
  C       0.044032     -2.362196      1.699015
  C       2.211234     -2.093933      0.942434
  C       1.423704     -2.650250     -0.130912
  C       1.358384     -1.945536      2.060193
  N      -1.052502      0.141358     -0.521446
  C      -2.315660      0.403721      0.184178
  C      -3.103090      1.571485     -0.391164
  H      -3.925709      1.807964      0.282297
  H      -3.550302      1.344545     -1.359907
  H      -2.491219      2.468703     -0.486797
  C      -3.148586     -0.872719      0.221302
  H      -2.019157      0.656883      1.202872
  H      -4.049203     -0.707493      0.810986
  H      -3.456633     -1.172713     -0.781114
  H      -2.606702     -1.700207      0.676737
  C      -0.896004      0.407648     -1.764752
  C       0.436835      0.209191     -2.267056
  H      -1.698727      0.796084     -2.383678
  C       1.492994      0.206680     -1.352056
  C       2.713609     -0.111366     -2.025856
  S       0.912597     -0.163411     -3.850514
  C       2.549128     -0.329793     -3.357544
  H       1.530112      1.204551     -0.631865
  H       3.681457     -0.116850     -1.545759
  H       3.307237     -0.557514     -4.091446
  H      -0.719792     -3.217438     -0.236019
  H      -0.812647     -2.399823      2.354727
  H       1.640008     -1.518537      3.012298
  O       1.467402      2.416166      0.149090
  O       0.553542      0.976968      1.583957
  C       0.993329      2.136203      1.256665
  C       0.932319      3.177792      2.336649
  H       0.908713      4.177229      1.910826
  H       1.829930      3.099517      2.952923
  H       0.074960      3.027577      2.988650
  H       3.268243     -1.877753      0.916583
  H       1.783669     -2.904636     -1.116967
39
Coordinates from ORCA-job reaction4-IEIP_ts_guess_scan_10-4_orca E -1288.400277263584
  Ir      0.627011     -0.709671      0.415962
  C       0.106626     -2.820217      0.339176
  C       0.043739     -2.362875      1.700618
  C       2.211530     -2.092991      0.946057
  C       1.425721     -2.650460     -0.127743
  C       1.357062     -1.944744      2.062684
  N      -1.052582      0.139966     -0.522682
  C      -2.315668      0.402853      0.183232
  C      -3.103378      1.570905     -0.391277
  H      -3.925477      1.807381      0.282796
  H      -3.551396      1.344248     -1.359692
  H      -2.491451      2.468067     -0.487159
  C      -3.149372     -0.873112      0.221058
  H      -2.018677      0.655970      1.201887
  H      -4.049659     -0.707253      0.811087
  H      -3.457989     -1.173101     -0.781181
  H      -2.607812     -1.700780      0.676433
  C      -0.896438      0.406816     -1.765796
  C       0.435683      0.209053     -2.269293
  H      -1.699506      0.795705     -2.383925
  C       1.491660      0.203494     -1.354240
  C       2.712156     -0.111935     -2.029254
  S       0.911941     -0.152358     -3.854996
  C       2.547348     -0.327335     -3.361413
  H       1.531377      1.207172     -0.640661
  H       3.679887     -0.120495     -1.549013
  H       3.305127     -0.554299     -4.095856
  H      -0.717294     -3.218929     -0.234983
  H      -0.813716     -2.400545      2.355295
  H       1.637314     -1.516935      3.014840
  O       1.478997      2.409786      0.154833
  O       0.550460      0.977733      1.583955
  C       0.994874      2.134829      1.259241
  C       0.932586      3.178330      2.337632
  H       0.915856      4.177333      1.910471
  H       1.826415      3.096878      2.959019
  H       0.070961      3.032820      2.985091
  H       3.268536     -1.876630      0.921706
  H       1.786920     -2.905483     -1.113170
39
Coordinates from ORCA-job reaction4-IEIP_ts_guess_scan_10-4_orca E -1288.400314639939
  Ir      0.627014     -0.713110      0.417704
  C       0.104486     -2.822967      0.344831
  C       0.040230     -2.364956      1.705782
  C       2.209169     -2.096995      0.953286
  C       1.424525     -2.655194     -0.120715
  C       1.352884     -1.946775      2.068496
  N      -1.051605      0.137897     -0.522797
  C      -2.315021      0.400219      0.183142
  C      -3.102553      1.569801     -0.388626
  H      -3.924448      1.804929      0.286135
  H      -3.550922      1.345455     -1.357409
  H      -2.490479      2.467082     -0.482604
  C      -3.149747     -0.875200      0.218619
  H      -2.018190      0.651229      1.202420
  H      -4.050019     -0.709702      0.808770
  H      -3.458376     -1.173109     -0.784241
  H      -2.608913     -1.704079      0.672587
  C      -0.895335      0.407808     -1.765330
  C       0.435726      0.210680     -2.270788
  H      -1.698699      0.798431     -2.381994
  C       1.491021      0.195669     -1.355066
  C       2.712013     -0.112410     -2.032641
  S       0.912432     -0.135876     -3.859357
  C       2.548432     -0.310459     -3.367678
  H       1.534155      1.204695     -0.646000
  H       3.679402     -0.126239     -1.551864
  H       3.306834     -0.527158     -4.104555
  H      -0.718922     -3.221640     -0.230097
  H      -0.818261     -2.400688      2.359171
  H       1.632208     -1.517698      3.020366
  O       1.483087      2.406028      0.151514
  O       0.552538      0.977996      1.582181
  C       0.999155      2.133102      1.256848
  C       0.934601      3.180538      2.331513
  H       0.916931      4.178075      1.900969
  H       1.828093      3.102313      2.953783
  H       0.072675      3.036151      2.978857
  H       3.266557     -1.882367      0.930768
  H       1.786691     -2.912286     -1.105238
39
Coordinates from ORCA-job reaction4-IEIP_ts_guess_scan_10-4_orca E -1288.400354883871
  Ir      0.625661     -0.718957      0.421245
  C       0.100014     -2.827194      0.355492
  C       0.032084     -2.367117      1.715336
  C       2.203751     -2.102653      0.968202
  C       1.422119     -2.662808     -0.106564
  C       1.343333     -1.948484      2.080198
  N      -1.050410      0.133547     -0.522917
  C      -2.314795      0.392962      0.182666
  C      -3.102381      1.565006     -0.384101
  H      -3.924630      1.796548      0.291421
  H      -3.550342      1.345125     -1.354104
  H      -2.490673      2.463020     -0.473565
  C      -3.149915     -0.882409      0.211820
  H      -2.019222      0.639615      1.203409
  H      -4.050860     -0.719124      0.801532
  H      -3.457334     -1.175896     -0.792723
  H      -2.609879     -1.713395      0.662846
  C      -0.893968      0.411006     -1.763567
  C       0.435531      0.217544     -2.272061
  H      -1.697790      0.806015     -2.376900
  C       1.489489      0.182755     -1.355217
  C       2.711324     -0.111862     -2.037564
  S       0.914994     -0.089405     -3.867396
  C       2.549274     -0.281270     -3.376774
  H       1.537864      1.196958     -0.648595
  H       3.677760     -0.139902     -1.555522
  H       3.308071     -0.484216     -4.117143
  H      -0.721882     -3.226278     -0.221330
  H      -0.828829     -2.399103      2.365667
  H       1.620180     -1.516459      3.031478
  O       1.485901      2.404127      0.139999
  O       0.556578      0.979884      1.576285
  C       1.001878      2.133260      1.246638
  C       0.944608      3.183915      2.318822
  H       0.925138      4.180276      1.885702
  H       1.841774      3.106721      2.935927
  H       0.086436      3.041843      2.971632
  H       3.261727     -1.890666      0.949604
  H       1.786793     -2.923738     -1.089139
39
Coordinates from ORCA-job reaction4-IEIP_ts_guess_scan_10-4_orca E -1288.400364997377
  Ir      0.625494     -0.720611      0.422274
  C       0.098324     -2.827896      0.357179
  C       0.028389     -2.366896      1.716729
  C       2.201745     -2.104782      0.973258
  C       1.421535     -2.665013     -0.102498
  C       1.339388     -1.949076      2.083637
  N      -1.049477      0.133028     -0.522048
  C      -2.313974      0.390673      0.183878
  C      -3.101727      1.563422     -0.381187
  H      -3.924076      1.793599      0.294687
  H      -3.549515      1.345019     -1.351614
  H      -2.490272      2.461744     -0.469176
  C      -3.148626     -0.885055      0.210215
  H      -2.018874      0.635738      1.205112
  H      -4.050029     -0.723173      0.799630
  H      -3.455282     -1.176834     -0.795053
  H      -2.608630     -1.716740      0.659985
  C      -0.893447      0.413639     -1.762004
  C       0.435358      0.220580     -2.271742
  H      -1.697517      0.810280     -2.373922
  C       1.489560      0.178273     -1.355505
  C       2.710924     -0.113433     -2.039840
  S       0.914455     -0.075544     -3.869225
  C       2.548620     -0.271726     -3.380431
  H       1.540296      1.191399     -0.646447
  H       3.677302     -0.147079     -1.558060
  H       3.307098     -0.469962     -4.122409
  H      -0.722731     -3.226800     -0.220951
  H      -0.833771     -2.397481      2.365476
  H       1.614983     -1.516399      3.034985
  O       1.493569      2.401421      0.138091
  O       0.558639      0.980191      1.574518
  C       1.007509      2.132146      1.244370
  C       0.945178      3.185875      2.313111
  H       0.925375      4.180850      1.876803
  H       1.840704      3.112016      2.932962
  H       0.085295      3.044400      2.963742
  H       3.259947     -1.893766      0.956518
  H       1.787631     -2.926834     -1.084310
39
Coordinates from ORCA-job reaction4-IEIP_ts_guess_scan_10-4_orca E -1288.400373272527
  Ir      0.625300     -0.721274      0.423229
  C       0.097868     -2.827993      0.357678
  C       0.024197     -2.365751      1.716849
  C       2.200014     -2.105339      0.979654
  C       1.422611     -2.665958     -0.097972
  C       1.334480     -1.948464      2.087451
  N      -1.049054      0.132982     -0.521269
  C      -2.313911      0.388261      0.184939
  C      -3.102404      1.561376     -0.378438
  H      -3.924913      1.789889      0.297819
  H      -3.549983      1.344205     -1.349240
  H      -2.491593      2.460259     -0.465060
  C      -3.147604     -0.888140      0.208169
  H      -2.019554      0.631866      1.206703
  H      -4.049756     -0.728072      0.796965
  H      -3.453045     -1.178312     -0.797929
  H      -2.607544     -1.720361      0.656802
  C      -0.893354      0.416650     -1.760683
  C       0.434819      0.223628     -2.271554
  H      -1.697702      0.814445     -2.371401
  C       1.489505      0.173846     -1.356381
  C       2.710062     -0.115805     -2.042664
  S       0.912836     -0.064815     -3.870926
  C       2.547203     -0.263101     -3.384539
  H       1.543227      1.184959     -0.643700
  H       3.676550     -0.154496     -1.561509
  H       3.305295     -0.456542     -4.128184
  H      -0.721427     -3.227318     -0.222627
  H      -0.839821     -2.395526      2.363179
  H       1.607594     -1.515128      3.039215
  O       1.502412      2.397469      0.137318
  O       0.558969      0.981097      1.573331
  C       1.010480      2.131934      1.241913
  C       0.948037      3.187587      2.308558
  H       0.930105      4.181652      1.870070
  H       1.842726      3.113945      2.929621
  H       0.087075      3.048499      2.958203
  H       3.258327     -1.894670      0.965814
  H       1.791343     -2.928294     -1.078665
39
Coordinates from ORCA-job reaction4-IEIP_ts_guess_scan_10-4_orca E -1288.400383527570
  Ir      0.625813     -0.721233      0.423797
  C       0.099362     -2.827902      0.356185
  C       0.020513     -2.364779      1.715056
  C       2.199295     -2.104879      0.986277
  C       1.425911     -2.665826     -0.094076
  C       1.329536     -1.947758      2.090772
  N      -1.048508      0.133454     -0.520208
  C      -2.313612      0.386422      0.186596
  C      -3.102920      1.560277     -0.374312
  H      -3.925325      1.787000      0.302674
  H      -3.550669      1.344773     -1.345403
  H      -2.492656      2.459674     -0.459422
  C      -3.146704     -0.890415      0.206332
  H      -2.019742      0.628096      1.208937
  H      -4.049514     -0.732175      0.794647
  H      -3.451123     -1.178475     -0.800681
  H      -2.606821     -1.723538      0.653418
  C      -0.893246      0.420173     -1.759165
  C       0.434229      0.227270     -2.271487
  H      -1.697874      0.819480     -2.368435
  C       1.489718      0.169808     -1.358005
  C       2.708832     -0.119363     -2.046480
  S       0.910635     -0.052310     -3.873216
  C       2.544184     -0.259755     -3.389022
  H       1.547875      1.178312     -0.640776
  H       3.675622     -0.163717     -1.566445
  H       3.301138     -0.452009     -4.134132
  H      -0.717396     -3.228046     -0.227094
  H      -0.845783     -2.394713      2.358346
  H       1.599087     -1.514162      3.043436
  O       1.514299      2.391901      0.138910
  O       0.558863      0.981734      1.573035
  C       1.015636      2.130752      1.241443
  C       0.948171      3.189693      2.304317
  H       0.931613      4.182217      1.862233
  H       1.840466      3.118704      2.929070
  H       0.084579      3.052427      2.950804
  H       3.257602     -1.893975      0.976270
  H       1.798283     -2.927947     -1.073459
39
Coordinates from ORCA-job reaction4-IEIP_ts_guess_scan_10-4_orca E -1288.400394955903
  Ir      0.626309     -0.720395      0.424438
  C       0.102745     -2.827838      0.353663
  C       0.015729     -2.363972      1.712069
  C       2.198553     -2.102629      0.995926
  C       1.431780     -2.664594     -0.088474
  C       1.322194     -1.946240      2.095421
  N      -1.048310      0.134024     -0.518990
  C      -2.313809      0.384294      0.188143
  C      -3.104199      1.558925     -0.369877
  H      -3.926675      1.783338      0.307763
  H      -3.551895      1.345301     -1.341412
  H      -2.494746      2.459061     -0.453011
  C      -3.146178     -0.893071      0.203701
  H      -2.020616      0.623672      1.211218
  H      -4.049749     -0.737100      0.791475
  H      -3.449409     -1.178497     -0.804426
  H      -2.606455     -1.727327      0.648842
  C      -0.893604      0.423641     -1.757526
  C       0.432796      0.231127     -2.271921
  H      -1.698801      0.824360     -2.365114
  C       1.489211      0.164979     -1.360672
  C       2.706412     -0.123789     -2.051983
  S       0.906575     -0.039701     -3.876362
  C       2.539382     -0.256372     -3.395234
  H       1.554118      1.171057     -0.638544
  H       3.673740     -0.173808     -1.573622
  H       3.294954     -0.447051     -4.142142
  H      -0.709937     -3.229728     -0.234058
  H      -0.853857     -2.395253      2.350856
  H       1.585872     -1.512354      3.049606
  O       1.529744      2.384197      0.142182
  O       0.557622      0.982984      1.573227
  C       1.021523      2.129296      1.241685
  C       0.950529      3.191940      2.300538
  H       0.936096      4.182807      1.854591
  H       1.840681      3.123111      2.928536
  H       0.084488      3.057491      2.944283
  H       3.256685     -1.890702      0.991809
  H       1.809873     -2.925997     -1.065865
39
Coordinates from ORCA-job reaction4-IEIP_ts_guess_scan_10-4_orca E -1288.400402799527
  Ir      0.626287     -0.719240      0.424976
  C       0.106874     -2.828050      0.351104
  C       0.011095     -2.363923      1.709032
  C       2.197728     -2.099123      1.005929
  C       1.438319     -2.662743     -0.082565
  C       1.314310     -1.944324      2.100194
  N      -1.049011      0.134287     -0.518065
  C      -2.315034      0.382080      0.188994
  C      -3.106340      1.557433     -0.366378
  H      -3.929152      1.779494      0.311595
  H      -3.553636      1.345648     -1.338503
  H      -2.497701      2.458324     -0.447296
  C      -3.146705     -0.895812      0.200586
  H      -2.022647      0.619200      1.212838
  H      -4.050802     -0.742165      0.788176
  H      -3.449106     -1.178485     -0.808574
  H      -2.606884     -1.731185      0.643506
  C      -0.894723      0.425892     -1.756294
  C       0.430696      0.234140     -2.272590
  H      -1.700554      0.827412     -2.362546
  C       1.487864      0.161148     -1.363237
  C       2.703515     -0.127157     -2.057059
  S       0.902072     -0.029905     -3.879206
  C       2.534465     -0.253207     -3.400849
  H       1.559721      1.165355     -0.636998
  H       3.671371     -0.181177     -1.580212
  H       3.288950     -0.442270     -4.149260
  H      -0.701387     -3.232112     -0.241183
  H      -0.861832     -2.397391      2.343140
  H       1.571421     -1.510024      3.055997
  O       1.545468      2.377430      0.145631
  O       0.556407      0.984837      1.573063
  C       1.028210      2.128059      1.242140
  C       0.955796      3.193779      2.297836
  H       0.943158      4.183340      1.848865
  H       1.844774      3.126374      2.927625
  H       0.088303      3.062000      2.940125
  H       3.255536     -1.885623      1.008054
  H       1.822548     -2.923127     -1.057849
39
Coordinates from ORCA-job reaction4-IEIP_ts_guess_scan_10-4_orca E -1288.400408957154
  Ir      0.625621     -0.717877      0.425340
  C       0.112053     -2.828486      0.347794
  C       0.005774     -2.364633      1.705227
  C       2.196533     -2.094006      1.017347
  C       1.446192     -2.660029     -0.075886
  C       1.304708     -1.941845      2.105473
  N      -1.050520      0.134251     -0.517295
  C      -2.317062      0.379537      0.189576
  C      -3.109123      1.555679     -0.363119
  H      -3.932449      1.775244      0.315013
  H      -3.555784      1.345922     -1.335981
  H      -2.501265      2.457319     -0.441485
  C      -3.147935     -0.898954      0.197103
  H      -2.025520      0.614230      1.214240
  H      -4.052204     -0.748000      0.785134
  H      -3.450060     -1.178412     -0.813045
  H      -2.607561     -1.735550      0.637052
  C      -0.896740      0.427405     -1.755226
  C       0.427731      0.236696     -2.273371
  H      -1.703328      0.829279     -2.360303
  C       1.485659      0.158063     -1.365795
  C       2.699940     -0.129811     -2.062035
  S       0.896715     -0.021793     -3.881822
  C       2.529004     -0.250013     -3.406237
  H       1.565342      1.160303     -0.635688
  H       3.668331     -0.186885     -1.586638
  H       3.282511     -0.437404     -4.156050
  H      -0.690873     -3.235219     -0.249862
  H      -0.871073     -2.401172      2.333725
  H       1.553724     -1.506917      3.063150
  O       1.563106      2.370970      0.149242
  O       0.555032      0.987337      1.571919
  C       1.036360      2.126849      1.242437
  C       0.963939      3.195300      2.295477
  H       0.952514      4.183716      1.843875
  H       1.852624      3.129162      2.925800
  H       0.095870      3.066003      2.937429
  H       3.253817     -1.878215      1.026903
  H       1.837771     -2.918856     -1.048679
39
Coordinates from ORCA-job reaction4-IEIP_ts_guess_scan_10-4_orca E -1288.400413952702
  Ir      0.624138     -0.716356      0.425504
  C       0.119543     -2.829338      0.342717
  C      -0.001282     -2.366508      1.699564
  C       2.194751     -2.086244      1.032444
  C       1.457217     -2.655869     -0.067226
  C       1.291396     -1.938457      2.112183
  N      -1.053251      0.133837     -0.516596
  C      -2.320331      0.376115      0.190183
  C      -3.112995      1.553462     -0.359061
  H      -3.937015      1.769944      0.319199
  H      -3.558790      1.346579     -1.332942
  H      -2.505877      2.455879     -0.433955
  C      -3.150285     -0.903064      0.192612
  H      -2.029734      0.607577      1.215867
  H      -4.054203     -0.755755      0.782108
  H      -3.452966     -1.177939     -0.818635
  H      -2.608743     -1.741376      0.627862
  C      -0.900208      0.428627     -1.754150
  C       0.423311      0.239212     -2.274266
  H      -1.707728      0.830513     -2.358048
  C       1.482205      0.155428     -1.368602
  C       2.695048     -0.132141     -2.067566
  S       0.889544     -0.014353     -3.884422
  C       2.522043     -0.246605     -3.412069
  H       1.572032      1.155091     -0.634401
  H       3.664056     -0.191865     -1.593749
  H       3.274444     -0.432178     -4.163444
  H      -0.675917     -3.239732     -0.262333
  H      -0.883552     -2.407499      2.320142
  H       1.529015     -1.502540      3.072323
  O       1.586227      2.363740      0.153510
  O       0.553264      0.991101      1.569039
  C       1.047642      2.125598      1.242342
  C       0.976396      3.196852      2.292754
  H       0.965240      4.184025      1.838326
  H       1.865863      3.132498      2.922148
  H       0.108765      3.069971      2.935687
  H       3.251146     -1.866934      1.052279
  H       1.858958     -2.912107     -1.036589
39
Coordinates from ORCA-job reaction4-IEIP_ts_guess_scan_10-4_orca E -1288.400415819867
  Ir      0.622331     -0.715340      0.425232
  C       0.127090     -2.830237      0.336995
  C      -0.007931     -2.369013      1.693377
  C       2.192877     -2.078317      1.046409
  C       1.468062     -2.651452     -0.059510
  C       1.278394     -1.935359      2.118005
  N      -1.056278      0.133204     -0.516144
  C      -2.323627      0.372896      0.190926
  C      -3.116498      1.551615     -0.354992
  H      -3.941081      1.765426      0.323432
  H      -3.561575      1.347740     -1.329837
  H      -2.509734      2.454525     -0.426536
  C      -3.152879     -0.906793      0.188737
  H      -2.033628      0.601256      1.217471
  H      -4.055852     -0.763017      0.780549
  H      -3.457079     -1.176953     -0.823325
  H      -2.609851     -1.746889      0.618693
  C      -0.904025      0.429461     -1.753330
  C       0.418988      0.240963     -2.274821
  H      -1.712261      0.831178     -2.356421
  C       1.478848      0.154443     -1.370585
  C       2.690534     -0.133522     -2.071710
  S       0.882891     -0.010579     -3.885898
  C       2.515860     -0.244825     -3.416245
  H       1.577931      1.151758     -0.633821
  H       3.660041     -0.194731     -1.599089
  H       3.267212     -0.429464     -4.168897
  H      -0.660963     -3.244067     -0.275321
  H      -0.895584     -2.414189      2.305925
  H       1.504782     -1.498460      3.080422
  O       1.607597      2.358250      0.156960
  O       0.551562      0.994990      1.564728
  C       1.058362      2.124864      1.241604
  C       0.988583      3.197918      2.290342
  H       0.975840      4.184128      1.833748
  H       1.879913      3.135939      2.917323
  H       0.122541      3.072024      2.935504
  H       3.248268     -1.855440      1.076366
  H       1.879711     -2.904743     -1.025522
39
Coordinates from ORCA-job reaction4-IEIP_ts_guess_scan_10-4_orca E -1288.400415860430
  Ir      0.621285     -0.715268      0.424647
  C       0.131484     -2.830751      0.332950
  C      -0.011473     -2.370910      1.689215
  C       2.191824     -2.073994      1.053652
  C       1.474271     -2.648864     -0.055901
  C       1.271173     -1.934055      2.120664
  N      -1.058134      0.132714     -0.515967
  C      -2.325399      0.371177      0.191686
  C      -3.118038      1.550980     -0.352164
  H      -3.942812      1.763506      0.326445
  H      -3.562838      1.349171     -1.327563
  H      -2.511115      2.453929     -0.421708
  C      -3.154538     -0.908586      0.186940
  H      -2.035427      0.597694      1.218627
  H      -4.056493     -0.766779      0.780776
  H      -3.460396     -1.175708     -0.825421
  H      -2.610554     -1.749943      0.613212
  C      -0.906343      0.429956     -1.752898
  C       0.416813      0.241552     -2.274701
  H      -1.714716      0.831694     -2.355774
  C       1.477373      0.155266     -1.371010
  C       2.688431     -0.133806     -2.073094
  S       0.879463     -0.011382     -3.885731
  C       2.512901     -0.245579     -3.417406
  H       1.581043      1.151575     -0.634274
  H       3.658187     -0.195144     -1.600977
  H       3.263485     -0.430670     -4.170712
  H      -0.652308     -3.246366     -0.283585
  H      -0.902352     -2.417950      2.296917
  H       1.491251     -1.496704      3.084335
  O       1.618440      2.356768      0.158157
  O       0.550684      0.997332      1.560952
  C       1.063908      2.125079      1.240513
  C       0.994648      3.198335      2.289030
  H       0.978523      4.184155      1.831605
  H       1.888222      3.139036      2.913055
  H       0.130787      3.071205      2.936790
  H       3.246628     -1.849245      1.089510
  H       1.891483     -2.900231     -1.020051
39
Coordinates from ORCA-job reaction4-IEIP_ts_guess_scan_10-4_orca E -1288.400415194638
  Ir      0.621349     -0.715834      0.424247
  C       0.132766     -2.830934      0.331125
  C      -0.012786     -2.371704      1.687439
  C       2.191513     -2.073446      1.055986
  C       1.476298     -2.648437     -0.054987
  C       1.268789     -1.934301      2.121396
  N      -1.058360      0.132580     -0.515759
  C      -2.325423      0.370613      0.192478
  C      -3.117783      1.551174     -0.350169
  H      -3.942494      1.763229      0.328670
  H      -3.562607      1.350596     -1.325808
  H      -2.510569      2.454003     -0.418729
  C      -3.154796     -0.908965      0.186443
  H      -2.035230      0.596187      1.219543
  H      -4.056209     -0.767862      0.781274
  H      -3.461568     -1.174556     -0.826037
  H      -2.610647     -1.751119      0.610922
  C      -0.906779      0.430747     -1.752444
  C       0.416598      0.241968     -2.274170
  H      -1.714942      0.833049     -2.355190
  C       1.477579      0.156037     -1.370694
  C       2.688171     -0.134072     -2.073297
  S       0.878512     -0.012304     -3.885057
  C       2.512150     -0.246757     -3.417416
  H       1.582305      1.152377     -0.635080
  H       3.658047     -0.195696     -1.601448
  H       3.262118     -0.432565     -4.171155
  H      -0.649553     -3.246946     -0.287004
  H      -0.905034     -2.418487      2.293163
  H       1.486918     -1.496967      3.085513
  O       1.620985      2.357262      0.157759
  O       0.550652      0.997988      1.558771
  C       1.065044      2.125606      1.239374
  C       0.994860      3.198650      2.287957
  H       0.974701      4.184244      1.830133
  H       1.890287      3.142430      2.909593
  H       0.132951      3.069192      2.937801
  H       3.246211     -1.848570      1.094098
  H       1.895346     -2.899219     -1.018502
