! Opt PBEh-3c
%geom Constraints
{ B 0 20 2.6 C }
{ B 24 30 1.4 C }
    end
end
%output 
xyzfile=True 
end 
%scf 
maxiter 250 
end
%output
Print[P_Hirshfeld] = 1
end
% maxcore
4000
*xyz 1 1
Ir   0.56979749  -0.73591669   0.48939552 
C    0.01542048  -2.81315927   0.34937553 
C    0.10302313  -2.37503891   1.72244892 
C    2.18394877  -2.15021776   0.76742604 
C    1.27754664  -2.64441433  -0.24527819 
C    1.47355838  -2.02558974   1.97291603 
N   -1.04081620   0.17034198  -0.50908657 
C   -2.31669977   0.50905458   0.14156552 
C   -3.13270136   1.54170987  -0.61879971 
H   -3.96836977   1.85691396   0.00442321 
H   -3.56404674   1.14815027  -1.54065297 
H   -2.55075901   2.43341924  -0.85407252 
C   -3.11654083  -0.76297863   0.39392858 
H   -2.03043386   0.93675799   1.10405071 
H   -4.03487422  -0.51700613   0.92486083 
H   -3.39395932  -1.24921919  -0.54232688 
H   -2.57080526  -1.47679756   1.00945638 
C   -0.82377450   0.37278527  -1.75059281 
C    0.52976116   0.15192179  -2.21621230 
H   -1.59924441   0.72982484  -2.42260334 
C    1.64104648   0.56322338  -1.49168011 
C    2.83805664   0.14767952  -2.14177928 
S    0.93968636  -0.66277101  -3.66437548 
C    2.61264319  -0.51279196  -3.30895399 
H    1.54790890   1.42029591  -0.67778502 
H    3.82892652   0.37937708  -1.77894129 
H    3.34290575  -0.90475823  -4.00075785 
H   -0.87703692  -3.16780479  -0.14588969 
H   -0.68398320  -2.41452205   2.46145828 
H    1.86531119  -1.64617841   2.90571565 
O    1.30022127   2.43897058   0.27150780 
O    0.53970130   0.89556973   1.69271499 
C    0.90679006   2.09618948   1.38330294 
C    0.85180040   3.07534735   2.52196719 
H    0.80429530   4.09483837   2.14907178 
H    1.76122418   2.97987557   3.11848070 
H    0.01055102   2.88008963   3.18374631 
H    3.22723117  -1.91418057   0.61781589 
H    1.53205961  -2.84980114  -1.27510066 
*
