39
Coordinates from ORCA-job reaction4-IEIP_ts_guess_scan_7-12_orca E -1288.400856425688
  Ir      0.606343     -0.729196      0.468280
  C       0.087128     -2.824550      0.355283
  C      -0.003357     -2.364650      1.716959
  C       2.183688     -2.113177      1.014648
  C       1.416649     -2.656078     -0.080799
  C       1.309558     -1.964753      2.113041
  N      -1.046704      0.127099     -0.505259
  C      -2.324394      0.376887      0.183359
  C      -3.103835      1.554280     -0.384556
  H      -3.933546      1.782712      0.282955
  H      -3.540808      1.342784     -1.361349
  H      -2.489603      2.451699     -0.461231
  C      -3.159770     -0.898193      0.185446
  H      -2.048468      0.616271      1.211294
  H      -4.072581     -0.741448      0.758617
  H      -3.447270     -1.182474     -0.827662
  H      -2.629324     -1.734319      0.638418
  C      -0.880959      0.396066     -1.744135
  C       0.447627      0.221053     -2.257510
  H      -1.689965      0.768257     -2.365924
  C       1.533922      0.256593     -1.391240
  C       2.734331     -0.046993     -2.093308
  S       0.882524     -0.131968     -3.865830
  C       2.531353     -0.269528     -3.422460
  H       1.570365      1.243611     -0.576172
  H       3.716415     -0.043685     -1.643229
  H       3.271505     -0.486508     -4.177852
  H      -0.725988     -3.215847     -0.238929
  H      -0.873806     -2.402824      2.354676
  H       1.572332     -1.544620      3.073643
  O       1.539242      2.345860      0.164896
  O       0.553350      0.978298      1.607882
  C       1.028214      2.111843      1.269725
  C       0.979431      3.190541      2.311184
  H       0.931137      4.173217      1.849415
  H       1.895805      3.149282      2.903122
  H       0.141798      3.052611      2.990337
  H       3.240295     -1.893272      1.008113
  H       1.796736     -2.895689     -1.063111
39
Coordinates from ORCA-job reaction4-IEIP_ts_guess_scan_7-12_orca E -1288.401033388923
  Ir      0.609078     -0.730806      0.470155
  C       0.086006     -2.827332      0.361278
  C      -0.007134     -2.366797      1.722216
  C       2.181773     -2.117566      1.024507
  C       1.416823     -2.661557     -0.071681
  C       1.304602     -1.966669      2.120451
  N      -1.046259      0.125926     -0.506824
  C      -2.323103      0.375529      0.182180
  C      -3.103059      1.551518     -0.387813
  H      -3.933522      1.780143      0.278665
  H      -3.538803      1.338240     -1.364794
  H      -2.489513      2.449359     -0.465205
  C      -3.157144     -0.900360      0.186098
  H      -2.046725      0.616235      1.209704
  H      -4.069731     -0.743935      0.759682
  H      -3.445000     -1.186011     -0.826524
  H      -2.625417     -1.735400      0.639691
  C      -0.882739      0.397005     -1.748141
  C       0.446131      0.228581     -2.266461
  H      -1.693310      0.772085     -2.366166
  C       1.529168      0.249117     -1.396174
  C       2.730239     -0.049339     -2.100390
  S       0.882087     -0.110648     -3.877270
  C       2.529938     -0.254927     -3.432535
  H       1.570175      1.244518     -0.576846
  H       3.711593     -0.052559     -1.648695
  H       3.271318     -0.464068     -4.188823
  H      -0.726031     -3.218799     -0.234321
  H      -0.878971     -2.403952      2.357972
  H       1.565351     -1.545708      3.081227
  O       1.545034      2.347164      0.163858
  O       0.553178      0.979584      1.609964
  C       1.031562      2.112497      1.270799
  C       0.983289      3.192082      2.311032
  H       0.936009      4.174494      1.848490
  H       1.899368      3.150505      2.903370
  H       0.145167      3.055200      2.989700
  H       3.238844     -1.899963      1.020747
  H       1.799095     -2.904197     -1.052386
39
Coordinates from ORCA-job reaction4-IEIP_ts_guess_scan_7-12_orca E -1288.401163202017
  Ir      0.606670     -0.731379      0.472289
  C       0.078362     -2.828618      0.374059
  C      -0.018063     -2.364914      1.732969
  C       2.173005     -2.119648      1.039830
  C       1.410824     -2.667341     -0.055746
  C       1.291661     -1.963310      2.132461
  N      -1.044328      0.120741     -0.506366
  C      -2.322282      0.366599      0.181508
  C      -3.104236      1.542563     -0.386006
  H      -3.936165      1.767587      0.279886
  H      -3.538125      1.330954     -1.364139
  H      -2.492565      2.441967     -0.460103
  C      -3.154327     -0.910656      0.181975
  H      -2.047235      0.604959      1.209959
  H      -4.067455     -0.757336      0.755602
  H      -3.441214     -1.194247     -0.831484
  H      -2.621165     -1.745724      0.633696
  C      -0.880421      0.399386     -1.747762
  C       0.447927      0.237597     -2.273447
  H      -1.692245      0.779732     -2.360533
  C       1.529739      0.231545     -1.401403
  C       2.730284     -0.052905     -2.113325
  S       0.883944     -0.055877     -3.892612
  C       2.529984     -0.225562     -3.449896
  H       1.580051      1.238994     -0.576866
  H       3.711519     -0.071698     -1.661614
  H       3.270969     -0.419719     -4.210457
  H      -0.732406     -3.221267     -0.222454
  H      -0.891675     -2.399048      2.366289
  H       1.549856     -1.538921      3.092412
  O       1.565914      2.342871      0.162294
  O       0.549589      0.984343      1.606866
  C       1.040445      2.111918      1.268057
  C       0.993751      3.195214      2.303480
  H       0.955969      4.176468      1.837537
  H       1.906047      3.149290      2.901310
  H       0.150527      3.065847      2.977129
  H       3.230700     -1.905271      1.039312
  H       1.795538     -2.915944     -1.033963
39
Coordinates from ORCA-job reaction4-IEIP_ts_guess_scan_7-12_orca E -1288.401221809581
  Ir      0.607095     -0.735615      0.476231
  C       0.073121     -2.832073      0.389524
  C      -0.025816     -2.362994      1.746023
  C       2.167769     -2.125546      1.056928
  C       1.407343     -2.676595     -0.037773
  C       1.283105     -1.961595      2.146195
  N      -1.043556      0.116594     -0.507123
  C      -2.323777      0.357847      0.178991
  C      -3.106130      1.536033     -0.383466
  H      -3.939484      1.756463      0.282137
  H      -3.538191      1.329204     -1.363426
  H      -2.495408      2.436555     -0.451637
  C      -3.155898     -0.919467      0.171177
  H      -2.051529      0.591126      1.209369
  H      -4.070519     -0.769056      0.743225
  H      -3.440173     -1.198043     -0.844406
  H      -2.623974     -1.756660      0.620077
  C      -0.879524      0.403569     -1.746489
  C       0.446396      0.244689     -2.276583
  H      -1.692691      0.786586     -2.355696
  C       1.527748      0.215517     -1.404659
  C       2.727996     -0.054224     -2.122301
  S       0.881121     -0.017747     -3.900960
  C       2.528581     -0.186819     -3.463667
  H       1.587329      1.229832     -0.578239
  H       3.709062     -0.085662     -1.670938
  H       3.270090     -0.359287     -4.228918
  H      -0.736864     -3.225658     -0.207400
  H      -0.901113     -2.392186      2.377214
  H       1.539751     -1.532938      3.104681
  O       1.583443      2.335172      0.158856
  O       0.551987      0.987285      1.603058
  C       1.050623      2.109591      1.263175
  C       1.007037      3.198156      2.292660
  H       0.975002      4.177368      1.822018
  H       1.917835      3.150787      2.892654
  H       0.161573      3.075750      2.964753
  H       3.226207     -1.915051      1.059064
  H       1.793802     -2.931718     -1.013589
39
Coordinates from ORCA-job reaction4-IEIP_ts_guess_scan_7-12_orca E -1288.401261908013
  Ir      0.607348     -0.739191      0.478786
  C       0.070798     -2.834435      0.401499
  C      -0.031218     -2.360168      1.755875
  C       2.164835     -2.128574      1.071262
  C       1.406722     -2.682929     -0.023139
  C       1.276909     -1.958309      2.157162
  N      -1.043968      0.113383     -0.508258
  C      -2.326406      0.348549      0.176750
  C      -3.109639      1.529424     -0.378988
  H      -3.943998      1.744163      0.287131
  H      -3.540503      1.328550     -1.360741
  H      -2.500172      2.431287     -0.440529
  C      -3.157849     -0.929155      0.158455
  H      -2.057178      0.575613      1.209345
  H      -4.074336     -0.782753      0.728528
  H      -3.438787     -1.201469     -0.859763
  H      -2.627170     -1.769034      0.603676
  C      -0.879800      0.410267     -1.744576
  C       0.443873      0.255654     -2.277103
  H      -1.693975      0.796537     -2.350495
  C       1.525356      0.205135     -1.406820
  C       2.724698     -0.056195     -2.127707
  S       0.879848      0.035269     -3.907151
  C       2.524334     -0.163058     -3.471602
  H       1.595360      1.221758     -0.578799
  H       3.704894     -0.106469     -1.676278
  H       3.264749     -0.328447     -4.239488
  H      -0.737889     -3.229470     -0.196205
  H      -0.908254     -2.385200      2.384836
  H       1.531731     -1.525399      3.114246
  O       1.602592      2.327729      0.157324
  O       0.554348      0.991024      1.597549
  C       1.061157      2.108123      1.258455
  C       1.019401      3.201910      2.282635
  H       0.993254      4.179048      1.807390
  H       1.928189      3.153333      2.885547
  H       0.171246      3.086399      2.952582
  H       3.223724     -1.920508      1.076126
  H       1.795146     -2.943201     -0.996780
39
Coordinates from ORCA-job reaction4-IEIP_ts_guess_scan_7-12_orca E -1288.401277644423
  Ir      0.604273     -0.740165      0.479168
  C       0.068144     -2.834083      0.403052
  C      -0.037212     -2.358104      1.756761
  C       2.160786     -2.127986      1.077249
  C       1.405416     -2.683311     -0.018473
  C       1.270080     -1.956028      2.160671
  N      -1.043475      0.112606     -0.506798
  C      -2.326474      0.344704      0.178305
  C      -3.111192      1.526089     -0.374520
  H      -3.945219      1.738313      0.292787
  H      -3.542699      1.327090     -1.356394
  H      -2.502796      2.428788     -0.434509
  C      -3.156225     -0.933961      0.156135
  H      -2.058189      0.569819      1.211596
  H      -4.073692     -0.789940      0.725240
  H      -3.435391     -1.204369     -0.863081
  H      -2.625289     -1.774468      0.600115
  C      -0.878355      0.413591     -1.741634
  C       0.444421      0.258282     -2.274508
  H      -1.692339      0.801219     -2.347052
  C       1.527548      0.198131     -1.406876
  C       2.725975     -0.057383     -2.130496
  S       0.879151      0.051153     -3.906929
  C       2.523767     -0.151026     -3.475475
  H       1.603628      1.213147     -0.577925
  H       3.706505     -0.113512     -1.680657
  H       3.263163     -0.309536     -4.245834
  H      -0.738891     -3.229696     -0.196494
  H      -0.915883     -2.381687      2.383516
  H       1.522772     -1.521523      3.117609
  O       1.616582      2.319416      0.157671
  O       0.552419      0.992190      1.592917
  C       1.066568      2.105663      1.255196
  C       1.023129      3.203590      2.275511
  H       1.001795      4.178897      1.796304
  H       1.929129      3.154922      2.882554
  H       0.171683      3.093216      2.942169
  H       3.219714     -1.920166      1.084781
  H       1.796044     -2.944692     -0.990911
39
Coordinates from ORCA-job reaction4-IEIP_ts_guess_scan_7-12_orca E -1288.401285321301
  Ir      0.603504     -0.740786      0.479170
  C       0.069335     -2.834455      0.401583
  C      -0.039969     -2.357987      1.755063
  C       2.159918     -2.127083      1.081640
  C       1.407837     -2.682963     -0.016085
  C       1.266194     -1.955333      2.162550
  N      -1.044002      0.113269     -0.506367
  C      -2.327044      0.343435      0.179272
  C      -3.112906      1.524715     -0.372260
  H      -3.946569      1.735726      0.295898
  H      -3.544959      1.326231     -1.354001
  H      -2.505235      2.427909     -0.431982
  C      -3.155641     -0.935910      0.155348
  H      -2.059045      0.567943      1.212756
  H      -4.073819     -0.793173      0.723679
  H      -3.433598     -1.205710     -0.864355
  H      -2.624651     -1.776514      0.598991
  C      -0.878859      0.416849     -1.740672
  C       0.443595      0.261750     -2.273547
  H      -1.692692      0.805480     -2.345586
  C       1.527254      0.196339     -1.407225
  C       2.724810     -0.059588     -2.131539
  S       0.877684      0.058268     -3.907061
  C       2.521711     -0.147845     -3.477069
  H       1.608909      1.208563     -0.576571
  H       3.705416     -0.119146     -1.682374
  H       3.260524     -0.304789     -4.248327
  H      -0.735554     -3.230920     -0.200267
  H      -0.920280     -2.381773      2.379518
  H       1.516176     -1.520308      3.119970
  O       1.627154      2.314477      0.159448
  O       0.551312      0.993175      1.590753
  C       1.070615      2.104711      1.254167
  C       1.025141      3.204794      2.272309
  H       1.005667      4.178889      1.790534
  H       1.929617      3.157027      2.881652
  H       0.171916      3.096753      2.937039
  H       3.218695     -1.918592      1.092127
  H       1.801211     -2.944235     -0.987441
39
Coordinates from ORCA-job reaction4-IEIP_ts_guess_scan_7-12_orca E -1288.401295193451
  Ir      0.601880     -0.741317      0.479100
  C       0.074112     -2.835458      0.396575
  C      -0.047784     -2.358534      1.749388
  C       2.157617     -2.123148      1.095137
  C       1.416191     -2.680969     -0.008722
  C       1.254118     -1.953270      2.168229
  N      -1.045583      0.115552     -0.505097
  C      -2.328806      0.340630      0.181589
  C      -3.118356      1.520773     -0.367421
  H      -3.951519      1.728504      0.302390
  H      -3.551178      1.322628     -1.348897
  H      -2.513151      2.425637     -0.426684
  C      -3.153894     -0.940842      0.153986
  H      -2.061516      0.564220      1.215431
  H      -4.073827     -0.801618      0.720444
  H      -3.428868     -1.209630     -0.866789
  H      -2.622193     -1.781213      0.597027
  C      -0.880559      0.426016     -1.738066
  C       0.441036      0.271686     -2.272002
  H      -1.694166      0.817962     -2.340996
  C       1.526002      0.191848     -1.409074
  C       2.720655     -0.065675     -2.136648
  S       0.872129      0.077392     -3.908536
  C       2.514476     -0.141261     -3.483085
  H       1.624719      1.196715     -0.571495
  H       3.701780     -0.134225     -1.690011
  H       3.251224     -0.295717     -4.256853
  H      -0.723878     -3.234891     -0.212418
  H      -0.933079     -2.384264      2.366694
  H       1.495065     -1.517210      3.127506
  O       1.659639      2.300644      0.166897
  O       0.547502      0.996364      1.585665
  C       1.083112      2.101886      1.253077
  C       1.031259      3.207495      2.265014
  H       1.016615      4.178320      1.776344
  H       1.931435      3.162685      2.880797
  H       0.172973      3.105162      2.923968
  H       3.215775     -1.912206      1.114944
  H       1.818410     -2.941481     -0.976666
39
Coordinates from ORCA-job reaction4-IEIP_ts_guess_scan_7-12_orca E -1288.401295884229
  Ir      0.600632     -0.740570      0.478611
  C       0.079181     -2.836143      0.391846
  C      -0.054517     -2.359197      1.743899
  C       2.155531     -2.118113      1.107292
  C       1.424275     -2.678335     -0.001857
  C       1.242760     -1.950672      2.173167
  N      -1.047441      0.117628     -0.504096
  C      -2.331115      0.338153      0.182918
  C      -3.124214      1.516934     -0.364112
  H      -3.957607      1.721281      0.306422
  H      -3.556796      1.318874     -1.345718
  H      -2.521624      2.423613     -0.422309
  C      -3.152844     -0.945391      0.152126
  H      -2.064632      0.560834      1.217164
  H      -4.073990     -0.809705      0.717511
  H      -3.425730     -1.212945     -0.869534
  H      -2.619860     -1.785476      0.594066
  C      -0.882398      0.433819     -1.735798
  C       0.438488      0.280188     -2.271271
  H      -1.695920      0.828820     -2.336770
  C       1.524507      0.189674     -1.411125
  C       2.716296     -0.070776     -2.142110
  S       0.865999      0.091828     -3.910062
  C       2.507191     -0.137739     -3.488773
  H       1.639219      1.188005     -0.566084
  H       3.698011     -0.146415     -1.697910
  H       3.241894     -0.291941     -4.264541
  H      -0.712306     -3.238775     -0.223451
  H      -0.944255     -2.387593      2.354659
  H       1.474847     -1.513784      3.134262
  O       1.690482      2.289065      0.175631
  O       0.544198      1.000198      1.581566
  C       1.095535      2.099768      1.253573
  C       1.038526      3.209604      2.260393
  H       1.027092      4.177867      1.766397
  H       1.935642      3.167843      2.880765
  H       0.176533      3.111197      2.914958
  H       3.212959     -1.904548      1.135620
  H       1.834819     -2.937885     -0.966585
39
Coordinates from ORCA-job reaction4-IEIP_ts_guess_scan_7-12_orca E -1288.401297688028
  Ir      0.600031     -0.738726      0.477862
  C       0.085106     -2.836595      0.387245
  C      -0.059154     -2.360391      1.738595
  C       2.154380     -2.111987      1.117273
  C       1.432495     -2.674874      0.003732
  C       1.233263     -1.947861      2.176924
  N      -1.049552      0.118834     -0.503558
  C      -2.333636      0.336552      0.183312
  C      -3.128814      1.514692     -0.362058
  H      -3.962953      1.716291      0.308324
  H      -3.560381      1.317188     -1.344227
  H      -2.527998      2.422678     -0.418359
  C      -3.153457     -0.948199      0.149863
  H      -2.067676      0.557940      1.218000
  H      -4.074815     -0.815283      0.715545
  H      -3.425971     -1.213734     -0.872427
  H      -2.619187     -1.788566      0.589673
  C      -0.884529      0.438264     -1.734369
  C       0.435866      0.284955     -2.271548
  H      -1.698118      0.835490     -2.333799
  C       1.522739      0.190005     -1.413188
  C       2.712239     -0.073593     -2.147266
  S       0.859410      0.096948     -3.911419
  C       2.500523     -0.138714     -3.493435
  H       1.650100      1.183182     -0.561436
  H       3.694674     -0.152247     -1.705080
  H       3.233480     -0.294812     -4.270458
  H      -0.700593     -3.242487     -0.233265
  H      -0.952637     -2.392288      2.343672
  H       1.456949     -1.510494      3.139797
  O       1.715130      2.280877      0.184177
  O       0.541540      1.003632      1.578794
  C       1.105857      2.098099      1.255433
  C       1.045496      3.210376      2.259046
  H       1.033273      4.177115      1.761920
  H       1.942175      3.172633      2.880283
  H       0.182659      3.112592      2.912474
  H       3.210975     -1.895507      1.152956
  H       1.850482     -2.932794     -0.958271
39
Coordinates from ORCA-job reaction4-IEIP_ts_guess_scan_7-12_orca E -1288.401302963846
  Ir      0.600023     -0.737104      0.477327
  C       0.088185     -2.836596      0.385529
  C      -0.060544     -2.361109      1.736502
  C       2.154029     -2.108216      1.121226
  C       1.436323     -2.672836      0.006132
  C       1.229253     -1.946009      2.178370
  N      -1.050853      0.118102     -0.503735
  C      -2.335173      0.335572      0.182737
  C      -3.129788      1.514714     -0.361077
  H      -3.964806      1.714985      0.308578
  H      -3.560129      1.319010     -1.344141
  H      -2.528943      2.422848     -0.414749
  C      -3.155390     -0.948948      0.147202
  H      -2.069365      0.555020      1.217902
  H      -4.075811     -0.817331      0.714660
  H      -3.429497     -1.211655     -0.875396
  H      -2.620336     -1.790474      0.583938
  C      -0.885938      0.436923     -1.734457
  C       0.434379      0.283665     -2.272597
  H      -1.699793      0.834243     -2.333565
  C       1.521517      0.191790     -1.414235
  C       2.710628     -0.072764     -2.149393
  S       0.856005      0.092684     -3.912023
  C       2.498175     -0.141505     -3.494869
  H       1.652079      1.184351     -0.560679
  H       3.693427     -0.149646     -1.707596
  H       3.230702     -0.299387     -4.271904
  H      -0.695271     -3.244068     -0.236769
  H      -0.955563     -2.394962      2.339188
  H       1.448975     -1.508412      3.142052
  O       1.721767      2.280417      0.186907
  O       0.541242      1.005428      1.578128
  C       1.109468      2.098124      1.256751
  C       1.050004      3.210100      2.260620
  H       1.032176      4.176982      1.763863
  H       1.949990      3.175997      2.877301
  H       0.190579      3.109140      2.918009
  H       3.210218     -1.890337      1.159859
  H       1.857426     -2.929547     -0.954860
39
Coordinates from ORCA-job reaction4-IEIP_ts_guess_scan_7-12_orca E -1288.401306921625
  Ir      0.599733     -0.736365      0.477441
  C       0.089988     -2.836542      0.385200
  C      -0.061842     -2.361416      1.735886
  C       2.153542     -2.105696      1.124682
  C       1.438728     -2.671607      0.008513
  C       1.226238     -1.944463      2.180060
  N      -1.051778      0.116671     -0.503957
  C      -2.336293      0.334047      0.182303
  C      -3.129469      1.515030     -0.359427
  H      -3.965117      1.714254      0.309752
  H      -3.558917      1.322067     -1.343421
  H      -2.527898      2.422845     -0.410158
  C      -3.157499     -0.949819      0.143984
  H      -2.070738      0.551014      1.218060
  H      -4.076937     -0.819342      0.713271
  H      -3.433264     -1.209166     -0.879026
  H      -2.622098     -1.792959      0.577273
  C      -0.887095      0.434537     -1.734744
  C       0.433174      0.281598     -2.273398
  H      -1.701313      0.831228     -2.333872
  C       1.520386      0.191844     -1.414867
  C       2.709770     -0.071564     -2.150409
  S       0.854255      0.090637     -3.912449
  C       2.497358     -0.141447     -3.495627
  H       1.651608      1.185036     -0.561547
  H       3.692607     -0.147213     -1.708456
  H       3.229917     -0.299007     -4.272677
  H      -0.692062     -3.244892     -0.238291
  H      -0.958080     -2.396100      2.336713
  H       1.443268     -1.506412      3.144148
  O       1.723497      2.280405      0.186851
  O       0.541280      1.006425      1.577395
  C       1.111117      2.098057      1.256766
  C       1.054192      3.209890      2.261044
  H       1.029713      4.176821      1.764606
  H       1.958533      3.179490      2.871532
  H       0.199462      3.105820      2.924016
  H       3.209495     -1.887100      1.165386
  H       1.861907     -2.927418     -0.951816
39
Coordinates from ORCA-job reaction4-IEIP_ts_guess_scan_7-12_orca E -1288.401311108827
  Ir      0.599164     -0.735922      0.477622
  C       0.092403     -2.836580      0.383882
  C      -0.063946     -2.362022      1.734311
  C       2.152839     -2.102833      1.129356
  C       1.442133     -2.670110      0.011335
  C       1.221982     -1.942964      2.182123
  N      -1.052872      0.114869     -0.504050
  C      -2.337486      0.331940      0.182292
  C      -3.128418      1.515868     -0.356111
  H      -3.964616      1.713813      0.312782
  H      -3.557025      1.327195     -1.341294
  H      -2.525475      2.422972     -0.402811
  C      -3.160157     -0.950885      0.139672
  H      -2.072215      0.545248      1.218862
  H      -4.078313     -0.822100      0.711398
  H      -3.438088     -1.205363     -0.883970
  H      -2.624489     -1.796452      0.568001
  C      -0.888714      0.431310     -1.735122
  C       0.431593      0.278836     -2.274031
  H      -1.703421      0.826665     -2.334539
  C       1.518926      0.191863     -1.415326
  C       2.708796     -0.070148     -2.150815
  S       0.852558      0.087174     -3.912619
  C       2.496613     -0.141660     -3.495881
  H       1.650176      1.185795     -0.563217
  H       3.691609     -0.143899     -1.708475
  H       3.229311     -0.298567     -4.272916
  H      -0.687541     -3.245845     -0.241649
  H      -0.962078     -2.397564      2.332260
  H       1.435317     -1.504464      3.146834
  O       1.724314      2.280629      0.185744
  O       0.541359      1.007719      1.576305
  C       1.112767      2.098335      1.256191
  C       1.059257      3.210119      2.260870
  H       1.023483      4.176737      1.764414
  H       1.970519      3.186304      2.861282
  H       0.212272      3.101054      2.932857
  H       3.208485     -1.883391      1.173214
  H       1.868349     -2.924488     -0.948041
39
Coordinates from ORCA-job reaction4-IEIP_ts_guess_scan_7-12_orca E -1288.401316338481
  Ir      0.598550     -0.735795      0.478173
  C       0.096357     -2.836875      0.381233
  C      -0.066953     -2.363360      1.731393
  C       2.152140     -2.099382      1.136455
  C       1.447660     -2.668038      0.015284
  C       1.215946     -1.941734      2.185130
  N      -1.054045      0.112875     -0.503827
  C      -2.338609      0.329470      0.182933
  C      -3.126430      1.517508     -0.350878
  H      -3.962992      1.714114      0.317982
  H      -3.554307      1.334672     -1.337465
  H      -2.521321      2.423390     -0.392582
  C      -3.163424     -0.951761      0.134435
  H      -2.073627      0.537999      1.220512
  H      -4.080194     -0.825021      0.708840
  H      -3.443721     -1.199984     -0.890093
  H      -2.627941     -1.800611      0.556579
  C      -0.890861      0.427688     -1.735404
  C       0.429457      0.275881     -2.274553
  H      -1.706234      0.821278     -2.335115
  C       1.517039      0.190921     -1.415917
  C       2.707341     -0.069401     -2.151300
  S       0.850569      0.084193     -3.912933
  C       2.495297     -0.141648     -3.496376
  H       1.648281      1.185507     -0.565359
  H       3.690129     -0.141512     -1.708643
  H       3.228033     -0.297389     -4.273603
  H      -0.680109     -3.247346     -0.247823
  H      -0.967998     -2.400190      2.324877
  H       1.423851     -1.502949      3.150896
  O       1.725238      2.279946      0.183896
  O       0.541012      1.008974      1.574832
  C       1.114457      2.098405      1.254940
  C       1.064632      3.210561      2.259516
  H       1.011925      4.176089      1.762277
  H       1.985437      3.197373      2.845508
  H       0.228873      3.094354      2.944120
  H       3.207306     -1.878736      1.185357
  H       1.878604     -2.920277     -0.942557
39
Coordinates from ORCA-job reaction4-IEIP_ts_guess_scan_7-12_orca E -1288.401320775503
  Ir      0.598264     -0.735974      0.478754
  C       0.100007     -2.837306      0.377917
  C      -0.070149     -2.364971      1.727877
  C       2.151364     -2.097112      1.143336
  C       1.452916     -2.666427      0.018831
  C       1.209935     -1.941647      2.187845
  N      -1.054606      0.111685     -0.503137
  C      -2.339094      0.327445      0.184119
  C      -3.124201      1.519359     -0.345116
  H      -3.960929      1.714714      0.323927
  H      -3.551538      1.342115     -1.332946
  H      -2.517018      2.424036     -0.382246
  C      -3.165716     -0.952327      0.129749
  H      -2.074438      0.531459      1.222633
  H      -4.081618     -0.827632      0.705994
  H      -3.447521     -1.194890     -0.895721
  H      -2.630676     -1.804177      0.546508
  C      -0.892507      0.425218     -1.735276
  C       0.427755      0.273896     -2.274630
  H      -1.708525      0.817138     -2.335189
  C       1.515683      0.189840     -1.416295
  C       2.706121     -0.069596     -2.151533
  S       0.849119      0.082038     -3.913104
  C       2.493942     -0.142126     -3.496689
  H       1.646323      1.185070     -0.567245
  H       3.688955     -0.140693     -1.708836
  H       3.226542     -0.297127     -4.274200
  H      -0.672856     -3.248701     -0.254957
  H      -0.974100     -2.402926      2.316867
  H       1.412656     -1.503069      3.154804
  O       1.725188      2.279700      0.181534
  O       0.541133      1.010099      1.573812
  C       1.115685      2.098920      1.253424
  C       1.068367      3.211627      2.257486
  H       0.996264      4.175438      1.759136
  H       1.998988      3.211252      2.827866
  H       0.244969      3.087209      2.955353
  H       3.206097     -1.875655      1.197485
  H       1.888592     -2.916712     -0.937396
39
Coordinates from ORCA-job reaction4-IEIP_ts_guess_scan_7-12_orca E -1288.401324406127
  Ir      0.598518     -0.736211      0.479453
  C       0.103112     -2.837799      0.374959
  C      -0.072776     -2.366590      1.724746
  C       2.150822     -2.096013      1.149310
  C       1.457378     -2.665322      0.021852
  C       1.204976     -1.942416      2.190212
  N      -1.054524      0.111500     -0.502124
  C      -2.339001      0.326351      0.185439
  C      -3.122377      1.520981     -0.340414
  H      -3.959122      1.715430      0.328868
  H      -3.549358      1.347696     -1.329095
  H      -2.513731      2.424794     -0.374381
  C      -3.166823     -0.952374      0.126517
  H      -2.074704      0.527146      1.224643
  H      -4.082695     -0.829051      0.703122
  H      -3.448748     -1.191219     -0.899797
  H      -2.632591     -1.806276      0.540149
  C      -0.893306      0.424684     -1.734617
  C       0.426715      0.273570     -2.274418
  H      -1.709815      0.815835     -2.334332
  C       1.515070      0.188161     -1.416719
  C       2.705150     -0.071116     -2.152265
  S       0.847966      0.082805     -3.913426
  C       2.492370     -0.142292     -3.497531
  H       1.645260      1.183678     -0.568065
  H       3.688136     -0.142853     -1.710028
  H       3.224569     -0.296868     -4.275519
  H      -0.666504     -3.249925     -0.261368
  H      -0.979105     -2.405580      2.310010
  H       1.403438     -1.504411      3.158314
  O       1.725330      2.278895      0.179725
  O       0.541527      1.010509      1.573463
  C       1.116475      2.099070      1.252154
  C       1.069842      3.212662      2.255142
  H       0.979841      4.174376      1.755424
  H       2.008476      3.224940      2.812026
  H       0.257298      3.080720      2.964124
  H       3.205194     -1.874057      1.208083
  H       1.897090     -2.914240     -0.932897
39
Coordinates from ORCA-job reaction4-IEIP_ts_guess_scan_7-12_orca E -1288.401326633650
  Ir      0.599134     -0.736424      0.479813
  C       0.104536     -2.838222      0.372919
  C      -0.074556     -2.367736      1.722592
  C       2.150315     -2.096375      1.152721
  C       1.459620     -2.665181      0.023457
  C       1.201886     -1.943741      2.191469
  N      -1.053879      0.112093     -0.501100
  C      -2.338445      0.326139      0.186487
  C      -3.121281      1.522026     -0.337501
  H      -3.958011      1.715830      0.331968
  H      -3.548061      1.350676     -1.326606
  H      -2.512075      2.425526     -0.369871
  C      -3.166617     -0.952180      0.124869
  H      -2.074472      0.525202      1.226097
  H      -4.083051     -0.829583      0.700745
  H      -3.447654     -1.189423     -0.902068
  H      -2.633094     -1.806979      0.537593
  C      -0.893067      0.425588     -1.733675
  C       0.426645      0.274274     -2.273976
  H      -1.709801      0.816807     -2.333013
  C       1.515378      0.187101     -1.416921
  C       2.704880     -0.072813     -2.152931
  S       0.847406      0.084232     -3.913519
  C       2.491312     -0.142823     -3.498201
  H       1.644694      1.182736     -0.567965
  H       3.688078     -0.145716     -1.711367
  H       3.223078     -0.297681     -4.276554
  H      -0.663108     -3.250643     -0.265576
  H      -0.982211     -2.407271      2.305764
  H       1.397977     -1.506442      3.160372
  O       1.724677      2.278895      0.178454
  O       0.542748      1.010473      1.573937
  C       1.116755      2.099376      1.251466
  C       1.069450      3.213741      2.253432
  H       0.964595      4.173543      1.752741
  H       2.013930      3.236974      2.799904
  H       0.265461      3.075269      2.970777
  H       3.204524     -1.874449      1.214351
  H       1.901673     -2.913627     -0.930342
39
Coordinates from ORCA-job reaction4-IEIP_ts_guess_scan_7-12_orca E -1288.401328096433
  Ir      0.599778     -0.736610      0.480023
  C       0.105224     -2.838621      0.371905
  C      -0.075559     -2.368534      1.721468
  C       2.150004     -2.096997      1.154674
  C       1.460766     -2.665393      0.024425
  C       1.200119     -1.944803      2.192232
  N      -1.053215      0.112782     -0.500383
  C      -2.337876      0.326459      0.187079
  C      -3.120789      1.522598     -0.336300
  H      -3.957463      1.716100      0.333303
  H      -3.547557      1.351643     -1.325480
  H      -2.511588      2.426122     -0.368298
  C      -3.166076     -0.951786      0.124393
  H      -2.074086      0.524920      1.226861
  H      -4.083220     -0.829233      0.699151
  H      -3.445947     -1.188830     -0.902916
  H      -2.633176     -1.806739      0.537576
  C      -0.892403      0.427053     -1.732782
  C       0.426973      0.275363     -2.273635
  H      -1.709129      0.819096     -2.331594
  C       1.515963      0.186069     -1.417151
  C       2.704866     -0.074395     -2.153827
  S       0.846959      0.086679     -3.913652
  C       2.490563     -0.142812     -3.499064
  H       1.644769      1.181432     -0.567164
  H       3.688242     -0.148933     -1.712939
  H       3.221975     -0.297894     -4.277714
  H      -0.661294     -3.251254     -0.267789
  H      -0.983847     -2.408463      2.303631
  H       1.394899     -1.507959      3.161607
  O       1.724531      2.278393      0.178100
  O       0.543936      1.009863      1.574656
  C       1.116868      2.099070      1.251334
  C       1.068344      3.214268      2.252260
  H       0.952508      4.172488      1.750816
  H       2.016689      3.246041      2.791495
  H       0.270423      3.070906      2.975339
  H       3.204115     -1.875070      1.217894
  H       1.904085     -2.913831     -0.928794
