! EnGrad PBEh-3c
%output 
xyzfile=True 
end 
%scf 
maxiter 250 
end
%output
Print[P_Hirshfeld] = 1
end
% maxcore
4000
*xyz -1 1
C   -2.70468849  -0.32154148   0.89212818 
C   -2.09253027   0.89476053   1.20313079 
C   -3.97759852  -0.60534944   1.37622591 
C   -4.69490303   0.36093190   2.06570899 
C   -4.06643431   1.53577796   2.43679028 
C   -2.73289279   1.72634911   2.11507681 
H   -2.41584807  -1.25671642  -0.19747010 
H   -4.48132075  -1.52734671   1.11119703 
H   -2.24387161   2.63132670   2.45827960 
H   -5.71449134   0.15861257   2.37078713 
H   -4.60455319   2.26793056   3.02580976 
C   -0.76359865   1.29910026   0.63593884 
C    0.39803217   0.56105569   1.30034127 
H   -0.60043195   2.37888354   0.72117817 
H   -0.79276756   1.12661232  -0.44058459 
C    1.67222859   0.62694276   0.50370504 
H    0.12335715  -0.48311894   1.47093571 
H    0.54643839   0.98448770   2.29942681 
C    1.88682634  -0.18854214  -0.61711022 
C    3.04968290  -0.00010303  -1.35948400 
C    3.98874660   0.96256700  -1.00973305 
C    2.70616718   1.44990993   0.94743310 
C    3.79548330   1.72351646   0.13273597 
H    3.23562147  -0.60469497  -2.23791303 
H    4.86314693   1.11541549  -1.63164828 
H    2.55047564   2.04153079   1.84438946 
H    4.49408901   2.51113039   0.38780447 
Pd   0.57078247  -1.54742893  -1.19882167 
Br  -1.12199353  -3.50711897  -1.73421748 
P    1.13356549  -2.93488098   0.38352518 
H    0.17464611  -3.30155777   1.34161871 
C    0.78612890  -0.83872274  -3.99462374 
O    1.71859843  -1.61421405  -4.11904011 
O   -0.06122312  -0.67154606  -3.06562752 
O    0.45697603   0.00515536  -5.01238198 
H    2.19595276  -2.62956177   1.25854299 
H    1.57867298  -4.21224868   0.00921051 
H    1.14354245  -0.11729791  -5.67324087 
*
