! EnGrad PBEh-3c
%output 
xyzfile=True 
end 
%scf 
maxiter 250 
end
%output
Print[P_Hirshfeld] = 1
end
% maxcore
4000
*xyz -1 1
C   -2.75078528  -0.24390293   0.76060123 
C   -2.10692986   0.91263944   1.18223990 
C   -4.03677829  -0.57038909   1.19008165 
C   -4.74978759   0.34563013   1.95058435 
C   -4.10968840   1.49600007   2.37367631 
C   -2.78602213   1.73622681   2.06184668 
H   -2.21221801  -0.89393872   0.08252917 
H   -4.46574489  -1.54510304   0.93819169 
H   -2.24197651   2.58952970   2.44697402 
H   -5.79973041   0.17321443   2.15692872 
H   -4.64239316   2.25676227   2.89265217 
C   -0.71572952   1.27705995   0.72098614 
C    0.44350581   0.50369524   1.37655633 
H   -0.59066565   2.33336242   0.95304620 
H   -0.63753507   1.17661084  -0.36610336 
C    1.69233520   0.57792056   0.53133885 
H    0.12515676  -0.53131738   1.52726538 
H    0.63604764   0.92293218   2.37149726 
C    1.84526679  -0.20123422  -0.63749976 
C    2.99357858   0.02837252  -1.39803405 
C    3.94253034   0.98501566  -1.04439290 
C    2.69605163   1.47423827   0.91730440 
C    3.80377715   1.72203970   0.11980167 
H    3.15318354  -0.55431774  -2.29651009 
H    4.79005733   1.16196040  -1.69348582 
H    2.61636138   2.00276183   1.86310527 
H    4.54995172   2.45976690   0.41282165 
Pd   0.53988185  -1.66269919  -1.24057266 
Br  -1.16320925  -3.57347703  -1.53035068 
P    1.21072571  -2.95007641   0.40728331 
H    0.30922246  -3.36279790   1.39226031 
C    0.70220139  -0.85318401  -3.95056134 
O    1.67000467  -1.58213665  -4.10963345 
O   -0.09126474  -0.75575651  -2.96448456 
O    0.36375989   0.02437292  -4.93729432 
H    2.30613138  -2.62249877   1.21721600 
H    1.63162807  -4.19517839  -0.06552478 
H    1.06983213  -0.05769460  -5.58175165 
*
