! EnGrad PBEh-3c
%output 
xyzfile=True 
end 
%scf 
maxiter 250 
end
%output
Print[P_Hirshfeld] = 1
end
% maxcore
4000
*xyz -1 1
C   -2.70658060  -0.40416794   0.77637496 
C   -2.07133682   0.88133871   1.21391087 
C   -3.98172846  -0.59469071   1.36017798 
C   -4.69765822   0.35647391   2.05741322 
C   -4.07217215   1.53220116   2.43840898 
C   -2.74966580   1.74177038   2.10799785 
H   -2.41991662  -1.16197190  -0.10745340 
H   -4.47022919  -1.52662731   1.10144734 
H   -2.24456825   2.62644287   2.46829190 
H   -5.72289697   0.16815273   2.33435905 
H   -4.61336471   2.27391202   3.00598659 
C   -0.76071104   1.30269336   0.64209037 
C    0.40964285   0.55553638   1.31160942 
H   -0.59725168   2.38153631   0.75139373 
H   -0.78106602   1.13606250  -0.42940641 
C    1.69030864   0.60921307   0.52752146 
H    0.12263691  -0.48255273   1.47445488 
H    0.55746138   0.98092285   2.30862917 
C    1.88063910  -0.17555306  -0.62094316 
C    3.05178519  -0.00061379  -1.36178931 
C    3.97967052   0.97105292  -1.01266249 
C    2.69518475   1.47581658   0.93352831 
C    3.80806232   1.71324371   0.13710992 
H    3.22477578  -0.60070266  -2.24258228 
H    4.85340722   1.12401956  -1.64138730 
H    2.56507343   2.03041745   1.85473781 
H    4.49742836   2.50920820   0.38926511 
Pd   0.53734959  -1.56527104  -1.24071143 
Br  -1.11914369  -3.51331983  -1.70939667 
P    1.14923319  -2.93768046   0.39550175 
H    0.19011235  -3.30729947   1.34391710 
C    0.73739564  -0.83916286  -3.99327661 
O    1.72192861  -1.61457858  -4.11385357 
O   -0.05276736  -0.70884003  -3.02536690 
O    0.46291906   0.01015120  -5.01920841 
H    2.20915624  -2.63204368   1.25294465 
H    1.58453240  -4.21079028  -0.00226027 
H    1.13449189  -0.10384899  -5.66471382 
*
