! EnGrad PBEh-3c
%output 
xyzfile=True 
end 
%scf 
maxiter 250 
end
%output
Print[P_Hirshfeld] = 1
end
% maxcore
4000
*xyz -1 1
C   -2.70950282  -0.42064157   0.73301496 
C   -2.07255521   0.85980381   1.21192367 
C   -3.97675024  -0.59783224   1.33876093 
C   -4.69609473   0.35778581   2.05452305 
C   -4.07801659   1.52878100   2.43868077 
C   -2.75278792   1.74070303   2.09724767 
H   -2.42127494  -1.10795511  -0.05568833 
H   -4.46628370  -1.52613309   1.09620077 
H   -2.24473127   2.62476149   2.47349873 
H   -5.72845396   0.17264224   2.31387663 
H   -4.61919105   2.27785992   2.99530955 
C   -0.75480683   1.30469556   0.64913606 
C    0.41617546   0.55300716   1.31744232 
H   -0.59563477   2.38254281   0.76899375 
H   -0.77379798   1.14089504  -0.42455544 
C    1.69827923   0.59969262   0.53797573 
H    0.12176119  -0.48317901   1.47681340 
H    0.56368710   0.97875971   2.31434900 
C    1.87602115  -0.17169080  -0.62574056 
C    3.04973624   0.00015351  -1.36178095 
C    3.97760845   0.97410074  -1.01628908 
C    2.69171073   1.48931244   0.92677703 
C    3.81282557   1.71020426   0.14073970 
H    3.21850365  -0.59863755  -2.24617667 
H    4.84713779   1.12903062  -1.64638390 
H    2.57313897   2.02525266   1.86075781 
H    4.50008669   2.50761163   0.39042980 
Pd   0.52343302  -1.57818992  -1.25790564 
Br  -1.11825949  -3.51682777  -1.69474938 
P    1.15552943  -2.93730802   0.39753446 
H    0.19888549  -3.31117015   1.34631796 
C    0.73396627  -0.85278680  -3.99546156 
O    1.70833404  -1.60331633  -4.11010830 
O   -0.05296986  -0.72462986  -3.00633990 
O    0.45387514   0.01497130  -5.01277917 
H    2.21840314  -2.63280827   1.25115231 
H    1.58794198  -4.20982664  -0.00881506 
H    1.13702102  -0.09888744  -5.66529139 
*
