! EnGrad PBEh-3c
%output 
xyzfile=True 
end 
%scf 
maxiter 250 
end
%output
Print[P_Hirshfeld] = 1
end
% maxcore
4000
*xyz -1 1
C   -2.72131886  -0.39485314   0.73394983 
C   -2.08189210   0.83599659   1.20214731 
C   -3.96927413  -0.60340485   1.31283846 
C   -4.69107975   0.35602735   2.05112815 
C   -4.08160151   1.52605592   2.43816500 
C   -2.75107000   1.73027901   2.08273565 
H   -2.41492535  -1.07419081  -0.02495513 
H   -4.46622358  -1.52764187   1.09119409 
H   -2.24492121   2.62224831   2.47534630 
H   -5.73271593   0.17519596   2.29782084 
H   -4.62454056   2.28154043   2.98768842 
C   -0.74816948   1.30344295   0.65694131 
C    0.42129669   0.55102434   1.32199225 
H   -0.59515458   2.38270080   0.78384148 
H   -0.76661045   1.14393775  -0.42164865 
C    1.70310459   0.59297267   0.54211316 
H    0.12040491  -0.48462537   1.47900610 
H    0.56870702   0.97677704   2.31936575 
C    1.87031426  -0.17216182  -0.63114766 
C    3.04594241   0.00187912  -1.36195039 
C    3.97767947   0.97487569  -1.01909464 
C    2.69023066   1.49822017   0.92279910 
C    3.81498327   1.71024128   0.14283368 
H    3.21330258  -0.59682275  -2.24951415 
H    4.84217480   1.13319604  -1.65034542 
H    2.57920185   2.02261699   1.86536045 
H    4.50342721   2.50574933   0.39212803 
Pd   0.51757895  -1.59209304  -1.26491696 
Br  -1.11846361  -3.51961736  -1.68247081 
P    1.15819743  -2.93535278   0.39514814 
H    0.20599189  -3.31494629   1.34940793 
C    0.73619253  -0.86295940  -3.99275583 
O    1.69544498  -1.59363407  -4.10845992 
O   -0.05340504  -0.73217982  -2.99915991 
O    0.44281561   0.01795939  -5.00412867 
H    2.22723030  -2.63266564   1.25114212 
H    1.59058596  -4.20863977  -0.01395475 
H    1.13977451  -0.09605335  -5.66576757 
*
