! EnGrad PBEh-3c
%output 
xyzfile=True 
end 
%scf 
maxiter 250 
end
%output
Print[P_Hirshfeld] = 1
end
% maxcore
4000
*xyz -1 1
C   -2.74141881  -0.33333431   0.74582143 
C   -2.09680398   0.80611062   1.18480653 
C   -3.97094856  -0.60484275   1.27219317 
C   -4.68160735   0.34380784   2.03896698 
C   -4.08262391   1.52096984   2.43351721 
C   -2.74858465   1.70860003   2.05633853 
H   -2.39482434  -1.01514510   0.02600644 
H   -4.46715098  -1.53404423   1.07779403 
H   -2.24676849   2.61083949   2.47412766 
H   -5.73824570   0.17933807   2.26506017 
H   -4.63499400   2.28832180   2.97241986 
C   -0.73816016   1.29528672   0.67068400 
C    0.43105713   0.54588404   1.33189956 
H   -0.59581288   2.38122298   0.81482687 
H   -0.75005592   1.15028921  -0.41440663 
C    1.71112837   0.58229545   0.54567442 
H    0.11779053  -0.48794529   1.48392080 
H    0.57914133   0.97216407   2.32982307 
C    1.85792350  -0.17556749  -0.64028058 
C    3.03781771   0.00591176  -1.36489929 
C    3.97643327   0.97561679  -1.02167212 
C    2.68759173   1.51094959   0.91707718 
C    3.81838893   1.71174563   0.14335882 
H    3.20264735  -0.59216573  -2.25567090 
H    4.83336623   1.14160396  -1.65912529 
H    2.59089187   2.01847251   1.87377867 
H    4.51139326   2.50187404   0.39616036 
Pd   0.51082579  -1.62013615  -1.27260417 
Br  -1.12034039  -3.52591875  -1.65750941 
P    1.16332649  -2.93162906   0.38993377 
H    0.22107646  -3.32284832   1.35593439 
C    0.72432577  -0.86589732  -3.98273910 
O    1.68733237  -1.58903558  -4.10867264 
O   -0.05537687  -0.74455445  -2.99036243 
O    0.42753823   0.02025113  -4.99175410 
H    2.24453523  -2.63208258   1.25041972 
H    1.59584833  -4.20554370  -0.02411305 
H    1.13665335  -0.08900875  -5.65871527 
*
