! EnGrad PBEh-3c
%output 
xyzfile=True 
end 
%scf 
maxiter 250 
end
%output
Print[P_Hirshfeld] = 1
end
% maxcore
4000
*xyz -1 1
C   -2.77552728  -0.26456985   0.76274084 
C   -2.08083318   0.86238409   1.17872965 
C   -4.02287649  -0.59061776   1.23082562 
C   -4.68946682   0.32417451   2.01159547 
C   -4.07451231   1.50486076   2.40743586 
C   -2.75370687   1.69494860   2.04173674 
H   -2.33459669  -0.93177521   0.08545661 
H   -4.46944804  -1.55249743   1.03729998 
H   -2.25478991   2.56655786   2.45109469 
H   -5.73809985   0.18082007   2.20557348 
H   -4.64474535   2.28814353   2.93884898 
C   -0.72681557   1.27590559   0.68995120 
C    0.44454812   0.53005091   1.35186574 
H   -0.60351493   2.36104857   0.87451728 
H   -0.71035090   1.16176981  -0.39676585 
C    1.71168913   0.57717975   0.53586670 
H    0.11546289  -0.49797672   1.49681577 
H    0.60035626   0.95975011   2.35007396 
C    1.84088285  -0.19063172  -0.64938910 
C    3.01646923   0.01543539  -1.37723786 
C    3.97074894   0.97307127  -1.02288468 
C    2.68936030   1.50953748   0.91571947 
C    3.81600474   1.72198842   0.13536396 
H    3.18253517  -0.57967950  -2.26750372 
H    4.81843904   1.15558343  -1.67578332 
H    2.60896989   2.01421487   1.88197418 
H    4.53061249   2.49266388   0.40505799 
Pd   0.52020343  -1.66373704  -1.26107011 
Br  -1.13193187  -3.54194876  -1.60972565 
P    1.17586837  -2.93045679   0.38572308 
H    0.25370139  -3.33796125   1.36799911 
C    0.71820730  -0.85893878  -3.96888718 
O    1.68141958  -1.59094185  -4.11424380 
O   -0.07685047  -0.75115050  -2.98643051 
O    0.40256503   0.01912820  -4.97098330 
H    2.27185252  -2.62968249   1.24238872 
H    1.60589048  -4.19688220  -0.04218424 
H    1.11317392  -0.07638410  -5.62656429 
*
