! EnGrad PBEh-3c
%output 
xyzfile=True 
end 
%scf 
maxiter 250 
end
%output
Print[P_Hirshfeld] = 1
end
% maxcore
4000
*xyz -1 1
C   -2.77476512  -0.26301425   0.76152159 
C   -2.07417999   0.89527979   1.18232719 
C   -4.04150685  -0.58365182   1.22787999 
C   -4.70649589   0.33198603   2.00544659 
C   -4.07998161   1.49775706   2.39710121 
C   -2.75959403   1.71273475   2.05584357 
H   -2.30729865  -0.92155045   0.08603401 
H   -4.46989853  -1.55793679   1.01761884 
H   -2.25632727   2.55390275   2.44081750 
H   -5.74068426   0.17861547   2.19201891 
H   -4.63979264   2.27805794   2.92479128 
C   -0.72207680   1.27785445   0.69288273 
C    0.44564280   0.52308383   1.35768692 
H   -0.60580105   2.34756571   0.89118281 
H   -0.69519279   1.16435493  -0.38994603 
C    1.70561729   0.58088559   0.53031464 
H    0.11675328  -0.50383762   1.50277391 
H    0.60752828   0.95356917   2.35525045 
C    1.84128156  -0.19537984  -0.64653457 
C    3.01008032   0.01851071  -1.38332228 
C    3.96546070   0.97285062  -1.02378674 
C    2.69142204   1.49927576   0.91794641 
C    3.81272484   1.72530174   0.12988059 
H    3.17667799  -0.57435245  -2.27192292 
H    4.81371203   1.15789637  -1.67995211 
H    2.61179769   2.01303854   1.87920191 
H    4.53686813   2.48806293   0.40766057 
Pd   0.52761834  -1.66647330  -1.25438683 
Br  -1.13872067  -3.54877541  -1.59478582 
P    1.18389572  -2.93539897   0.39242474 
H    0.26552496  -3.34221971   1.37107835 
C    0.71239998  -0.85031808  -3.96485349 
O    1.68609805  -1.59625890  -4.11637522 
O   -0.08395721  -0.75030297  -2.98629814 
O    0.39959683   0.01748794  -4.96774556 
H    2.27636185  -2.62854691   1.23570132 
H    1.60956847  -4.19406191  -0.04702706 
H    1.09864755  -0.07226539  -5.61071264 
*
