! EnGrad PBEh-3c
%output 
xyzfile=True 
end 
%scf 
maxiter 250 
end
%output
Print[P_Hirshfeld] = 1
end
% maxcore
4000
*xyz -1 1
C   -2.77175083  -0.22000800   0.77527720 
C   -2.09931064   0.92529080   1.18154969 
C   -4.05295965  -0.56867509   1.19197590 
C   -4.74169369   0.34240194   1.96484156 
C   -4.10114883   1.49479332   2.37648436 
C   -2.78422597   1.72384250   2.05934319 
H   -2.21743305  -0.88643128   0.09203244 
H   -4.46978166  -1.56004172   0.95147192 
H   -2.24486556   2.56595845   2.43728409 
H   -5.78131642   0.17424065   2.15201585 
H   -4.63609199   2.25448378   2.88633392 
C   -0.70835985   1.27655011   0.71477491 
C    0.44825116   0.50555155   1.37587289 
H   -0.60015984   2.32639339   0.94970857 
H   -0.64375190   1.17490091  -0.36949944 
C    1.69368687   0.58089221   0.52607178 
H    0.12156305  -0.52621710   1.52347583 
H    0.63305646   0.92962626   2.37183679 
C    1.84127444  -0.20434776  -0.64106351 
C    2.99228574   0.02845067  -1.39742623 
C    3.94805662   0.97916558  -1.03759518 
C    2.69589440   1.47837224   0.91847202 
C    3.80492527   1.72802659   0.11951925 
H    3.15548983  -0.55723559  -2.29168909 
H    4.79312018   1.16444375  -1.69298189 
H    2.62041081   2.00508409   1.86935129 
H    4.55280216   2.46727345   0.41427467 
Pd   0.54047209  -1.67428036  -1.24271704 
Br  -1.15958085  -3.57099372  -1.53867728 
P    1.20836361  -2.94764170   0.40679348 
H    0.30493957  -3.35956461   1.38711786 
C    0.69593215  -0.84395854  -3.94780553 
O    1.67982147  -1.59270994  -4.11495380 
O   -0.09321225  -0.75550432  -2.97608338 
O    0.36892044   0.02044092  -4.94029333 
H    2.30090164  -2.62394546   1.21845322 
H    1.62634133  -4.19080594  -0.06468727 
H    1.07179636  -0.05909780  -5.58065543 
*
