! EnGrad PBEh-3c
%output 
xyzfile=True 
end 
%scf 
maxiter 250 
end
%output
Print[P_Hirshfeld] = 1
end
% maxcore
4000
*xyz 0 1
Pd   1.82985473   1.06022401  -0.49832049 
O   -0.22948554   2.34574731  -0.46820952 
O    0.08738807   0.22273698  -0.14222783 
O    3.59728808   1.90310994  -0.73986741 
O    3.40941628   0.89892774   1.20105026 
C   -0.70282374   1.20950722  -0.23847186 
C   -2.18890438   1.00065254  -0.12437390 
H   -2.66312732   1.84460496   0.36887408 
H   -2.46911055   0.08895822   0.39676067 
H   -2.63019615   0.94424970  -1.12061219 
C    4.10863130   1.51889433   0.38808965 
C    5.54034666   1.87143654   0.67806942 
H    5.79962466   1.72621081   1.73175621 
H    5.78399998   2.88880925   0.37190724 
H    6.17407048   1.18729266   0.10745712 
C    1.76856507   0.75122719  -2.90210221 
C    0.53634795   0.45574044  -3.49617201 
C    2.82746768  -0.13877175  -3.03260691 
C    0.30466804  -0.76428536  -4.09695982 
C    1.30590616  -1.73072300  -4.12732818 
C    2.54093673  -1.38586904  -3.59355188 
H   -0.66463389  -1.00068979  -4.49853383 
H    1.10016740  -2.75843621  -4.46701015 
H    1.73056857   1.79687849  -2.52490959 
H   -0.23423472   1.22103433  -3.43936778 
H    3.86017388   0.01940134  -2.70907577 
H    3.28111103  -2.17153848  -3.57033651 
*
