! EnGrad PBEh-3c
%output 
xyzfile=True 
end 
%scf 
maxiter 250 
end
%output
Print[P_Hirshfeld] = 1
end
% maxcore
4000
*xyz 0 1
Pd   1.92168150   0.99454441  -0.58390210 
O   -0.31194285   2.44371684  -0.45286926 
O    0.11306631   0.27020898  -0.20137321 
O    3.70165612   1.80412972  -0.73209958 
O    3.33487352   1.03739612   1.19870261 
C   -0.71717896   1.26663957  -0.23836714 
C   -2.18123208   0.99810695  -0.10638255 
H   -2.64843433   1.83714743   0.39607775 
H   -2.43106115   0.07427652   0.40578001 
H   -2.60788053   0.94690155  -1.10844047 
C    4.12706397   1.58816105   0.43128386 
C    5.54597743   1.91209956   0.69828273 
H    5.75172280   1.82834519   1.74524336 
H    5.78316621   2.91251978   0.36803450 
H    6.18995387   1.22526600   0.15515716 
C    1.73718902   0.64306505  -2.85639275 
C    0.50851233   0.39339847  -3.46648163 
C    2.79577743  -0.29548443  -2.97859112 
C    0.28278267  -0.76449909  -4.16669546 
C    1.28561455  -1.71035918  -4.17775119 
C    2.53784034  -1.47657743  -3.62494458 
H   -0.68659571  -0.97446166  -4.60128684 
H    1.09525878  -2.69281990  -4.55142207 
H    1.79046893   1.82866850  -2.43481005 
H   -0.21907758   1.17451900  -3.40801011 
H    3.79385088  -0.03021095  -2.59884123 
H    3.31050403  -2.22213528  -3.64738223 
*
