! EnGrad PBEh-3c
%output 
xyzfile=True 
end 
%scf 
maxiter 250 
end
%output
Print[P_Hirshfeld] = 1
end
% maxcore
4000
*xyz 0 1
Pd   1.95312849   0.98192094  -0.61322272 
O   -0.34682055   2.46295560  -0.44869419 
O    0.13284591   0.30994048  -0.23486905 
O    3.75394954   1.76407054  -0.80647838 
O    3.29412870   1.12140439   1.25147300 
C   -0.69967500   1.32180739  -0.24979424 
C   -2.17197842   0.99764685  -0.09386958 
H   -2.64249810   1.83434037   0.41947450 
H   -2.40574397   0.06567057   0.41357977 
H   -2.59990486   0.95246591  -1.09786229 
C    4.13830279   1.61599534   0.45442862 
C    5.54832099   1.95087318   0.72754028 
H    5.73664321   1.90406287   1.78756739 
H    5.78318079   2.94676194   0.36090932 
H    6.20359488   1.24605787   0.20087137 
C    1.73253567   0.62534506  -2.79410478 
C    0.49847775   0.37494017  -3.44812138 
C    2.76410021  -0.32026358  -2.92977718 
C    0.27002003  -0.76520986  -4.21412166 
C    1.27920571  -1.71956730  -4.23262043 
C    2.52474786  -1.51576104  -3.65916671 
H   -0.69388939  -0.95582071  -4.68223370 
H    1.08029415  -2.68189875  -4.63746512 
H    1.83552647   1.69163973  -2.39200494 
H   -0.22664051   1.15991066  -3.38052673 
H    3.74936719  -0.08898931  -2.52318310 
H    3.31105008  -2.26496231  -3.71172969 
*
