! EnGrad PBEh-3c
%output 
xyzfile=True 
end 
%scf 
maxiter 250 
end
%output
Print[P_Hirshfeld] = 1
end
% maxcore
4000
*xyz 0 1
Pd   1.94755847   0.98612927  -0.58898474 
O   -0.35073205   2.46958343  -0.44463327 
O    0.13918981   0.32848080  -0.25315376 
O    3.77593186   1.74880464  -0.81246412 
O    3.29683337   1.15193801   1.25013690 
C   -0.69228216   1.33239174  -0.25775727 
C   -2.16612427   0.99814644  -0.09243706 
H   -2.64607843   1.83156307   0.42593555 
H   -2.39343823   0.06049145   0.41673301 
H   -2.59862080   0.95050470  -1.09621847 
C    4.10804991   1.60196114   0.42728877 
C    5.55040022   1.95622220   0.74227350 
H    5.74224815   1.91659733   1.81006334 
H    5.78156661   2.95598624   0.35709238 
H    6.20348425   1.25134788   0.20995301 
C    1.72229168   0.63987206  -2.79195028 
C    0.50466687   0.38072044  -3.44163423 
C    2.75165970  -0.30426718  -2.92345086 
C    0.27467883  -0.75815485  -4.19593781 
C    1.28887190  -1.73080574  -4.23147065 
C    2.52558534  -1.50046301  -3.64438158 
H   -0.68591978  -0.94740961  -4.69665050 
H    1.07413771  -2.69467443  -4.67196261 
H    1.85254655   1.62161922  -2.41780946 
H   -0.24506361   1.15829898  -3.37201513 
H    3.72900092  -0.11212496  -2.51201178 
H    3.30914046  -2.27576931  -3.72752861 
*
