! EnGrad PBEh-3c
%output 
xyzfile=True 
end 
%scf 
maxiter 250 
end
%output
Print[P_Hirshfeld] = 1
end
% maxcore
4000
*xyz 0 1
Pd   1.72857454   1.00698031  -0.30927504 
O   -0.22781146   2.20372995  -0.35258955 
O   -0.03754569   0.01668701  -0.11677344 
O    3.37885195   2.09275729  -0.42309958 
O    3.45685569   0.33247687   0.81407384 
C   -0.79201402   1.13689489  -0.21737815 
C   -2.27323824   0.95939610  -0.20521418 
H   -2.72400390   1.86062482   0.21740816 
H   -2.58069223   0.08667737   0.35908848 
H   -2.63239542   0.85917618  -1.22748975 
C    4.07623224   1.32275217   0.31466896 
C    5.53955846   1.53955273   0.47149741 
H    5.86177160   1.17154139   1.42457349 
H    5.77536676   2.61827788   0.40434415 
H    6.08321522   1.04920254  -0.32167358 
C    1.84550068   1.10528892  -3.31454263 
C    0.60397819   0.56706293  -3.51379255 
C    2.95851724   0.14371601  -3.21577040 
C    0.37344061  -0.78892738  -3.67253650 
C    1.39655275  -1.70284403  -3.56646219 
C    2.67024370  -1.25797904  -3.25126215 
H   -0.62738215  -1.10739875  -3.92756587 
H    1.22962561  -2.72711221  -3.85285770 
H    1.48262132   2.84742899  -3.05820483 
H   -0.22501985   1.22456099  -3.62148337 
H    3.98540850   0.43141454  -3.24413093 
H    3.47515184  -1.97969723  -3.14036937 
*
