! EnGrad PBEh-3c
%output 
xyzfile=True 
end 
%scf 
maxiter 250 
end
%output
Print[P_Hirshfeld] = 1
end
% maxcore
4000
*xyz 0 1
Pd   1.69205957   1.08082464  -0.33915256 
O   -0.17680656   2.22934198  -0.38655554 
O   -0.02087121   0.09196762  -0.12493726 
O    3.40684325   2.04937313  -0.50953803 
O    3.48307769   0.42797609   0.89390984 
C   -0.75745842   1.07324030  -0.21110222 
C   -2.25895602   0.97587773  -0.18691035 
H   -2.71814047   1.85808067   0.24605837 
H   -2.56247634   0.08537053   0.36753189 
H   -2.63908715   0.87555161  -1.21247996 
C    4.06146599   1.35956564   0.33900565 
C    5.53690458   1.62211585   0.51874991 
H    5.86609327   1.26553199   1.50154975 
H    5.76901664   2.65913765   0.39643813 
H    6.11224252   1.06246144  -0.24743979 
C    1.83301054   1.13243238  -3.21038165 
C    0.59519128   0.55224506  -3.50718047 
C    2.89481348   0.12599525  -3.18226112 
C    0.36826602  -0.79737966  -3.76564835 
C    1.37757668  -1.72695080  -3.66077259 
C    2.65598609  -1.25568228  -3.34825567 
H   -0.63034062  -1.08943213  -4.03282463 
H    1.19894780  -2.75497237  -3.97287028 
H    1.51547894   2.57162534  -2.96240181 
H   -0.22653691   1.23634930  -3.58492655 
H    3.99103631   0.33919309  -3.14852408 
H    3.43540554  -2.04010320  -3.21707420 
*
