! EnGrad PBEh-3c
%output 
xyzfile=True 
end 
%scf 
maxiter 250 
end
%output
Print[P_Hirshfeld] = 1
end
% maxcore
4000
*xyz 0 1
Pd   1.68823872   1.10213296  -0.34992440 
O   -0.16809687   2.22737901  -0.39438629 
O    0.00077787   0.08004039  -0.12387622 
O    3.41093326   2.03797106  -0.53688213 
O    3.48428824   0.44807340   0.92174954 
C   -0.76716947   1.10197784  -0.21343612 
C   -2.25281432   0.97501994  -0.18361941 
H   -2.71504423   1.85842304   0.25513072 
H   -2.55785017   0.08570537   0.36970364 
H   -2.64010029   0.88061842  -1.20629014 
C    4.06763707   1.37923130   0.34611185 
C    5.53909188   1.63168843   0.53229114 
H    5.86439350   1.29635752   1.51932366 
H    5.76851283   2.67845469   0.39363523 
H    6.11773659   1.07027109  -0.22171651 
C    1.81700075   1.13624762  -3.18342374 
C    0.59292467   0.54893213  -3.50520389 
C    2.89544921   0.12124795  -3.17077964 
C    0.36810261  -0.79646384  -3.79144962 
C    1.37156578  -1.73366003  -3.69012418 
C    2.64838462  -1.26799065  -3.37450500 
H   -0.63245313  -1.08422458  -4.06442528 
H    1.19117685  -2.75988793  -4.00795353 
H    1.52651767   2.49614799  -2.93357280 
H   -0.22410718   1.23730835  -3.57394554 
H    3.98523940   0.31182404  -3.12023484 
H    3.42261153  -2.05357043  -3.24028325 
*
