! EnGrad PBEh-3c
%output 
xyzfile=True 
end 
%scf 
maxiter 250 
end
%output
Print[P_Hirshfeld] = 1
end
% maxcore
4000
*xyz 0 1
Pd   1.69381437   1.11730722  -0.37516871 
O   -0.16374722   2.23372205  -0.41094235 
O    0.02820247   0.10384487  -0.12541374 
O    3.44131849   2.01739930  -0.59577115 
O    3.47832087   0.52746469   0.99589929 
C   -0.75251207   1.13040647  -0.22253191 
C   -2.23984159   0.97935362  -0.17185334 
H   -2.70678221   1.85735295   0.27935338 
H   -2.54286299   0.08672855   0.37560611 
H   -2.64113754   0.89470166  -1.18859536 
C    4.07431884   1.40896834   0.34537382 
C    5.53936097   1.67743841   0.56735662 
H    5.85943445   1.38208294   1.57132252 
H    5.77123474   2.72759012   0.38740698 
H    6.12952665   1.09215351  -0.15114546 
C    1.79951946   1.11607639  -3.10798349 
C    0.58936827   0.53991835  -3.50221173 
C    2.88297829   0.09265316  -3.14346655 
C    0.36259164  -0.79345819  -3.85607822 
C    1.35973177  -1.74576401  -3.78056890 
C    2.62832115  -1.28901643  -3.43154132 
H   -0.63939987  -1.06903926  -4.15401276 
H    1.16884228  -2.77171832  -4.10624154 
H    1.55784533   2.29646093  -2.85353131 
H   -0.22676264   1.24027565  -3.54486997 
H    3.96591794   0.24063597  -3.04111214 
H    3.38586066  -2.08555984  -3.30754674 
*
