! EnGrad PBEh-3c
%output 
xyzfile=True 
end 
%scf 
maxiter 250 
end
%output
Print[P_Hirshfeld] = 1
end
% maxcore
4000
*xyz 0 1
Pd   1.73297919   1.09396754  -0.40630092 
O   -0.19315091   2.23776054  -0.42176114 
O    0.05190964   0.13057679  -0.12676539 
O    3.48678686   1.99838134  -0.64583311 
O    3.45482139   0.63553836   1.07241333 
C   -0.72824677   1.19085081  -0.23849862 
C   -2.22480596   0.98378446  -0.15926765 
H   -2.69438846   1.85449451   0.30640575 
H   -2.52375814   0.08825145   0.38195038 
H   -2.63861276   0.91052764  -1.16586192 
C    4.08687342   1.43127359   0.34030106 
C    5.53955117   1.72993900   0.60150334 
H    5.84536537   1.48516116   1.62240312 
H    5.77878760   2.78445846   0.38192626 
H    6.13706473   1.12296218  -0.06814713 
C    1.78958431   1.02688785  -3.03582214 
C    0.58312798   0.52794690  -3.50035629 
C    2.87482019   0.03879268  -3.11237567 
C    0.35021753  -0.78372002  -3.92225342 
C    1.34624016  -1.74683022  -3.89326855 
C    2.60130166  -1.31740692  -3.47604259 
H   -0.64825493  -1.05000865  -4.25791301 
H    1.14620079  -2.77457329  -4.21645193 
H    1.60258627   2.11037850  -2.76030892 
H   -0.23224084   1.23719715  -3.51318335 
H    3.93286515   0.16916095  -2.94691886 
H    3.34622390  -2.10895509  -3.38741548 
*
