! EnGrad PBEh-3c
%output 
xyzfile=True 
end 
%scf 
maxiter 250 
end
%output
Print[P_Hirshfeld] = 1
end
% maxcore
4000
*xyz 0 1
Lu   0.41279270   0.22739367  -0.15689972 
C    0.45995624   0.91890855   2.50047999 
C    1.36044977  -0.11497750   2.16702041 
C    2.32593595   0.42619338   1.28453619 
C    1.95144503   1.76241976   0.99880522 
C    0.72269974   2.01391271   1.65601504 
H    2.45481987   2.43187764   0.31258183 
H    0.19084684   2.95491383   1.66619405 
H   -0.27724753   0.87796253   3.29114113 
H    1.40446024  -1.08632049   2.64236536 
H    3.21668467  -0.07154309   0.92644586 
C    0.99921470  -0.10743041  -2.55113214 
C   -0.30218634  -0.65889560  -2.51660123 
C    1.02984920  -1.96195576  -1.21136030 
C    1.82854821  -0.91379429  -1.73605629 
H    1.27661080   0.81527910  -3.04360945 
C   -0.24967636  -1.86425022  -1.79668873 
H   -1.13874824  -0.32829573  -3.11373053 
H    2.88286921  -0.76972678  -1.54801992 
H    1.38604360  -2.79635226  -0.62173805 
H   -1.03988958  -2.59699952  -1.71162135 
C   -2.42194826  -1.73944399   1.39727043 
H   -2.31457801  -1.52208030   2.44217708 
H   -2.38377953  -2.79324189   1.12395269 
H   -3.41080565  -1.39017310   1.03896105 
C   -1.93764005   1.89629568  -0.82789139 
H   -2.01956495  -0.14190197   0.47055460 
H   -1.27886211   2.59782009  -1.34205593 
H   -2.55368399   2.49829482  -0.15708142 
H   -2.57462619   1.43611507  -1.58401495 
*
