! EnGrad PBEh-3c
%output 
xyzfile=True 
end 
%scf 
maxiter 250 
end
%output
Print[P_Hirshfeld] = 1
end
% maxcore
4000
*xyz 0 1
Lu  -0.04547154   0.16828948  -0.03681470 
C    0.43458290   0.79436683   2.49688557 
C    1.42436765  -0.17256583   2.18239258 
C    2.29058068   0.39321554   1.23151875 
C    1.81874496   1.68087295   0.91291795 
C    0.65964007   1.92611453   1.68757495 
H    2.30656644   2.38702438   0.25536958 
H    0.11583477   2.85851880   1.73321902 
H   -0.35080927   0.68063316   3.23014741 
H    1.57197531  -1.12260898   2.68042321 
H    3.21794449  -0.04481057   0.88355306 
C    0.89885179  -0.07202383  -2.40760899 
C   -0.36675558  -0.70245090  -2.42982223 
C    1.05233538  -1.98987976  -1.18238964 
C    1.77281025  -0.87817310  -1.65273695 
H    1.17560349   0.82634281  -2.94026036 
C   -0.26804747  -1.89500644  -1.68540478 
H   -1.23267041  -0.36126053  -2.97455474 
H    2.83792577  -0.72390908  -1.54656256 
H    1.47926579  -2.83605639  -0.65698935 
H   -1.06147936  -2.60939858  -1.51991004 
C   -2.31211901  -1.34757760   1.16651140 
H   -2.22313488  -1.19033169   2.22942348 
H   -1.75140710  -2.22744278   0.86774577 
H   -3.45318714  -1.55880615   0.93149228 
C   -1.81748796   1.81858454  -0.81981258 
H   -2.21070600  -0.31106770   0.57705359 
H   -1.05861540   2.48009044  -1.27520154 
H   -2.44836200   2.53445188  -0.26149691 
H   -2.44954097   1.53636621  -1.68035667 
*
