! EnGrad PBEh-3c
%output 
xyzfile=True 
end 
%scf 
maxiter 250 
end
%output
Print[P_Hirshfeld] = 1
end
% maxcore
4000
*xyz 0 1
Lu   0.22678870   0.25248275  -0.14859878 
C    0.44971506   0.90163748   2.46576183 
C    1.38432505  -0.09877751   2.19862895 
C    2.34876089   0.43776026   1.29177362 
C    1.94519814   1.74441273   0.98103688 
C    0.75547236   2.03707801   1.69526516 
H    2.46031132   2.43417283   0.31743566 
H    0.19205435   2.95254070   1.66161434 
H   -0.29095408   0.87402469   3.27116746 
H    1.40366270  -1.08364030   2.63797029 
H    3.21567653  -0.07293336   0.92971009 
C    1.00543083  -0.10758032  -2.53398108 
C   -0.29153158  -0.67775655  -2.55197367 
C    1.04549160  -1.98393147  -1.24035479 
C    1.83902691  -0.91494505  -1.75000730 
H    1.28236886   0.81140627  -3.05121057 
C   -0.24274780  -1.84149463  -1.77224343 
H   -1.13924233  -0.31945777  -3.10567169 
H    2.88464737  -0.77059027  -1.55118291 
H    1.38612640  -2.79183016  -0.62048569 
H   -1.04341843  -2.58486552  -1.70130132 
C   -2.49808422  -1.61141484   1.30630947 
H   -2.29902487  -1.51834389   2.45583430 
H   -2.33862679  -2.77857689   1.10813045 
H   -3.39695444  -1.40347041   1.07255589 
C   -1.90414719   1.84995710  -0.80990784 
H   -1.99732611  -0.24308997   0.51092123 
H   -1.26932504   2.59882245  -1.34710617 
H   -2.54606562   2.47778837  -0.14376837 
H   -2.57256169   1.43048252  -1.57589705 
*
