! EnGrad PBEh-3c
%output 
xyzfile=True 
end 
%scf 
maxiter 250 
end
%output
Print[P_Hirshfeld] = 1
end
% maxcore
4000
*xyz 0 1
Lu   0.06866377   0.26480187  -0.13330956 
C    0.42770376   0.89234837   2.45584594 
C    1.42025131  -0.09309843   2.20864524 
C    2.34695068   0.43646295   1.30432485 
C    1.93422757   1.74088280   0.96022888 
C    0.77960103   2.04026323   1.71926319 
H    2.45469439   2.43138390   0.31945516 
H    0.18885724   2.94801417   1.66372629 
H   -0.29857720   0.85963792   3.24676602 
H    1.41218138  -1.08524772   2.63849221 
H    3.22283178  -0.07461949   0.92811266 
C    0.99982196  -0.09438906  -2.52563497 
C   -0.27917714  -0.69094490  -2.56612093 
C    1.06670287  -1.98897111  -1.26272419 
C    1.83795356  -0.92515251  -1.74624777 
H    1.27982477   0.80452243  -3.04791390 
C   -0.25407915  -1.83974440  -1.75156495 
H   -1.14612146  -0.31571608  -3.09522839 
H    2.88831858  -0.76831071  -1.55438652 
H    1.39323092  -2.79548504  -0.61976668 
H   -1.04047616  -2.56967916  -1.68256119 
C   -2.38726306  -1.55333761   1.29358731 
H   -2.29277741  -1.50159869   2.40909774 
H   -2.28273419  -2.70721726   1.09083905 
H   -3.51236079  -1.38999991   1.05696993 
C   -1.87129471   1.82725361  -0.79830278 
H   -2.01888956  -0.34107977   0.56033447 
H   -1.25748272   2.59154836  -1.34624861 
H   -2.52828229   2.46290244  -0.15003479 
H   -2.56177312   1.43546232  -1.57516450 
*
