! EnGrad PBEh-3c
%output 
xyzfile=True 
end 
%scf 
maxiter 250 
end
%output
Print[P_Hirshfeld] = 1
end
% maxcore
4000
*xyz 0 1
Lu   0.02752232   0.25436445  -0.11660747 
C    0.43401754   0.88389545   2.45833872 
C    1.42174039  -0.10061839   2.20921084 
C    2.34312291   0.42894291   1.29565139 
C    1.91888948   1.73659507   0.95528952 
C    0.76712331   2.02840415   1.71613008 
H    2.44046256   2.42820810   0.31190708 
H    0.18417931   2.93732768   1.67305099 
H   -0.30635819   0.83849576   3.24204640 
H    1.43109863  -1.08991426   2.64280985 
H    3.22588701  -0.07094327   0.92540185 
C    0.98697840  -0.09283548  -2.51343535 
C   -0.28816254  -0.69180131  -2.55123447 
C    1.06513412  -1.99272646  -1.25601867 
C    1.83253133  -0.91913615  -1.73551493 
H    1.26976483   0.80723949  -3.03755091 
C   -0.25195993  -1.84352447  -1.74679998 
H   -1.15315316  -0.32198995  -3.08243545 
H    2.88605147  -0.76490165  -1.55591341 
H    1.40509515  -2.80125269  -0.62456543 
H   -1.04376517  -2.57114767  -1.66088042 
C   -2.36096763  -1.52979195   1.27471586 
H   -2.28237072  -1.47077458   2.36706769 
H   -2.22196966  -2.63306959   1.07471763 
H   -3.51298614  -1.39803029   1.03936786 
C   -1.86198349   1.83585544  -0.80396579 
H   -2.06778355  -0.38286286   0.59507675 
H   -1.24166458   2.57934465  -1.33919742 
H   -2.51206368   2.46870077  -0.17209338 
H   -2.54458273   1.45195923  -1.58440015 
*
