! EnGrad PBEh-3c
%output 
xyzfile=True 
end 
%scf 
maxiter 250 
end
%output
Print[P_Hirshfeld] = 1
end
% maxcore
4000
*xyz 0 1
Lu  -0.09899328   0.22704053  -0.07300212 
C    0.43889989   0.84930029   2.46623212 
C    1.43410770  -0.11539436   2.21466422 
C    2.33386838   0.42105691   1.27648080 
C    1.88545949   1.71227822   0.93718648 
C    0.74210385   2.00455998   1.71651860 
H    2.39966824   2.41792696   0.29438254 
H    0.16661799   2.90930199   1.69529319 
H   -0.32340762   0.78327835   3.22725780 
H    1.47939639  -1.10265329   2.65427968 
H    3.23234073  -0.06199130   0.91717620 
C    0.96184134  -0.08751344  -2.47447385 
C   -0.31230864  -0.69780777  -2.52149691 
C    1.06833182  -2.00192776  -1.24489191 
C    1.81622515  -0.90629253  -1.71286655 
H    1.24087363   0.81257532  -3.00872097 
C   -0.25185725  -1.85769631  -1.72418002 
H   -1.17507394  -0.33635434  -3.04550266 
H    2.87747433  -0.75533253  -1.55943807 
H    1.43423912  -2.81596121  -0.63628426 
H   -1.05004348  -2.57410840  -1.60516884 
C   -2.45635436  -1.39433426   1.17142990 
H   -2.24551350  -1.38890297   2.29720579 
H   -2.04878929  -2.48907973   1.02252574 
H   -3.38722650  -1.45122171   1.02504342 
C   -1.83716571   1.83442648  -0.81484454 
H   -2.15827696  -0.46507798   0.66165485 
H   -1.18635341   2.55515131  -1.32556093 
H   -2.48424235   2.49537609  -0.21638152 
H   -2.50650891   1.49217927  -1.61440687 
*
