! EnGrad PBEh-3c
%output 
xyzfile=True 
end 
%scf 
maxiter 250 
end
%output
Print[P_Hirshfeld] = 1
end
% maxcore
4000
*xyz 0 1
Lu  -0.08394093   0.21275246  -0.06254105 
C    0.44404235   0.83648935   2.47630818 
C    1.42595951  -0.13519358   2.20450220 
C    2.32372985   0.41156475   1.25819073 
C    1.86610904   1.70390275   0.93160799 
C    0.71295298   1.97652930   1.70206668 
H    2.37276737   2.40912823   0.28211044 
H    0.15309840   2.89685004   1.70870483 
H   -0.33466021   0.75158950   3.22906177 
H    1.50919512  -1.10892244   2.66274766 
H    3.22900875  -0.05541989   0.90928553 
C    0.94224183  -0.08416764  -2.45438196 
C   -0.32930226  -0.69712979  -2.48834125 
C    1.05969675  -1.99887501  -1.22197462 
C    1.80581426  -0.89459585  -1.69417372 
H    1.22268667   0.81768626  -2.98928355 
C   -0.25235597  -1.86742095  -1.71750875 
H   -1.19189242  -0.34437529  -3.02679969 
H    2.86580783  -0.74727553  -1.55758075 
H    1.44995098  -2.82306346  -0.64405649 
H   -1.05647640  -2.58543858  -1.57680999 
C   -2.35666762  -1.41408013   1.19990301 
H   -2.24003066  -1.32304989   2.25948758 
H   -1.96433033  -2.38242097   0.97396553 
H   -3.46126081  -1.49264627   0.98988622 
C   -1.83054406   1.83427514  -0.81955832 
H   -2.18270851  -0.43312714   0.64785977 
H   -1.14791706   2.53988456  -1.31634649 
H   -2.47055183   2.51004532  -0.23295552 
H   -2.48657573   1.50824303  -1.63535859 
*
