! EnGrad PBEh-3c
%output 
xyzfile=True 
end 
%scf 
maxiter 250 
end
%output
Print[P_Hirshfeld] = 1
end
% maxcore
4000
*xyz 0 1
Lu  -0.05813236   0.17531128  -0.03878655 
C    0.43807829   0.80297072   2.49604120 
C    1.42464064  -0.16607011   2.18373264 
C    2.29706248   0.39272821   1.23500882 
C    1.82566630   1.68752773   0.91482165 
C    0.66789521   1.92860808   1.68712397 
H    2.31671624   2.38994763   0.25991371 
H    0.12166462   2.86712855   1.73106666 
H   -0.34910157   0.69052986   3.22983661 
H    1.56415746  -1.12199954   2.67896483 
H    3.22106500  -0.04506579   0.88919896 
C    0.90362820  -0.07186395  -2.41600447 
C   -0.35761228  -0.70236723  -2.43391410 
C    1.05338687  -1.98967115  -1.18786576 
C    1.77943122  -0.88146980  -1.65711626 
H    1.18320400   0.82434420  -2.94751385 
C   -0.26573973  -1.89122663  -1.69312837 
H   -1.22795485  -0.35858236  -2.98477422 
H    2.84270316  -0.72855026  -1.55031844 
H    1.47681868  -2.83606841  -0.65591557 
H   -1.06140782  -2.60530739  -1.52647816 
C   -2.32066231  -1.34257936   1.18093742 
H   -2.22423633  -1.21036521   2.23387419 
H   -1.77317540  -2.26617939   0.87877865 
H   -3.46567859  -1.55673222   0.93900461 
C   -1.81891444   1.82560175  -0.82177764 
H   -2.21104007  -0.33855163   0.59483090 
H   -1.07138691   2.49471632  -1.28573007 
H   -2.45175811   2.53618970  -0.26059334 
H   -2.45507686   1.53523389  -1.67698858 
*
