! EnGrad PBEh-3c
%output 
xyzfile=True 
end 
%scf 
maxiter 250 
end
%output
Print[P_Hirshfeld] = 1
end
% maxcore
4000
*xyz 0 1
Lu  -0.01398434   0.15082644  -0.03191076 
C    0.42588994   0.77296914   2.49898551 
C    1.42368875  -0.18872054   2.17905990 
C    2.27446058   0.39442752   1.22283900 
C    1.80153174   1.66432265   0.90818350 
C    0.63910971   1.91991315   1.68869652 
H    2.28132411   2.37975432   0.24406840 
H    0.10133605   2.83710652   1.73857189 
H   -0.35505629   0.65602029   3.23092036 
H    1.59141814  -1.12412466   2.68405018 
H    3.21018385  -0.04417584   0.86951183 
C    0.88697297  -0.07242147  -2.38672959 
C   -0.38949478  -0.70265898  -2.41964583 
C    1.04972034  -1.99039854  -1.16877064 
C    1.75634404  -0.86997430  -1.64184569 
H    1.15670120   0.83131331  -2.92222107 
C   -0.27378679  -1.90440673  -1.66619640 
H   -1.24439793  -0.36792108  -2.94913911 
H    2.82604451  -0.71236658  -1.53722175 
H    1.48535169  -2.83602652  -0.65965982 
H   -1.06165730  -2.61957328  -1.50357526 
C   -2.29087200  -1.36000812   1.13063420 
H   -2.22039560  -1.14050877   2.21835467 
H   -1.69726981  -2.13110565   0.84030724 
H   -3.42212116  -1.56396396   0.91280925 
C   -1.81394033   1.80113290  -0.81492550 
H   -2.20987516  -0.24271574   0.53284179 
H   -1.02685293   2.44371620  -1.24901734 
H   -2.43991594   2.53012995  -0.26374406 
H   -2.43577333   1.53918224  -1.68873303 
*
