! EnGrad PBEh-3c
%output 
xyzfile=True 
end 
%scf 
maxiter 250 
end
%output
Print[P_Hirshfeld] = 1
end
% maxcore
4000
*xyz 0 1
Lu   0.25240949   0.04284922  -0.00745793 
C    0.44818933   0.80426527   2.51000842 
C    1.42185001  -0.16573988   2.19123646 
C    2.34040002   0.42648419   1.29399107 
C    1.86737408   1.71634204   0.96490004 
C    0.66809421   1.92141378   1.68566351 
H    2.30880127   2.40087677   0.25190841 
H    0.12946704   2.85690311   1.73701460 
H   -0.25440090   0.73785716   3.32818393 
H    1.53007450  -1.13114051   2.66885902 
H    3.24045303  -0.03602932   0.91354000 
C    0.91835147  -0.09814784  -2.45294427 
C   -0.35834365  -0.70164871  -2.41503685 
C    1.05784969  -2.01022038  -1.21394790 
C    1.80382783  -0.92532197  -1.72973804 
H    1.15824266   0.84227624  -2.92994386 
C   -0.27098411  -1.88948181  -1.67573514 
H   -1.19979644  -0.40457185  -3.02175216 
H    2.85700497  -0.75374524  -1.55982110 
H    1.46343878  -2.84562678  -0.65824969 
H   -1.04075909  -2.64247972  -1.59956582 
C   -2.21307707  -1.66135506   1.27118080 
H   -2.26188382  -1.42460191   2.33682520 
H   -2.09338953  -2.74478592   1.16837041 
H   -3.23405309  -1.54075054   0.87861880 
C   -1.92397947   2.01828163  -0.91089572 
H   -2.43951533   0.26242517   0.41985793 
H   -1.12926355   2.62127337  -1.35287958 
H   -2.54512316   2.72346181  -0.35553517 
H   -2.50126919   1.60094400  -1.73665761 
*
