! EnGrad PBEh-3c
%output 
xyzfile=True 
end 
%scf 
maxiter 250 
end
%output
Print[P_Hirshfeld] = 1
end
% maxcore
4000
*xyz 0 1
Lu  -0.01269250   0.06262715   0.01016540 
C    0.44557421   0.80429291   2.49520714 
C    1.46684716  -0.14034786   2.22669361 
C    2.33613711   0.41222604   1.27911200 
C    1.85664703   1.69867065   0.94500803 
C    0.71131037   1.94935677   1.72662450 
H    2.32009872   2.39854656   0.26763481 
H    0.11623325   2.86004901   1.72163256 
H   -0.28190339   0.72910637   3.28640832 
H    1.52634529  -1.12768071   2.66636544 
H    3.24163976  -0.04151358   0.91103991 
C    0.92632101  -0.09309356  -2.44290524 
C   -0.33995312  -0.71375983  -2.45280087 
C    1.07198462  -2.01748190  -1.23127570 
C    1.80403095  -0.91685311  -1.70513108 
H    1.17012842   0.83165784  -2.94332505 
C   -0.25419146  -1.89562295  -1.69718377 
H   -1.21446959  -0.37896945  -3.00210269 
H    2.85829253  -0.75121963  -1.56480769 
H    1.46021104  -2.84391716  -0.65187269 
H   -1.04555552  -2.62095645  -1.57497247 
C   -2.28532752  -1.57503492   1.26188938 
H   -2.24710269  -1.40585243   2.32398776 
H   -2.00181972  -2.68137405   1.11577692 
H   -3.29388597  -1.52511672   0.89688907 
C   -1.93617411   1.94666690  -0.86871860 
H   -2.24773554   0.20675343   0.37787070 
H   -1.10052186   2.57143262  -1.32147748 
H   -2.54387116   2.67848358  -0.32571391 
H   -2.51072446   1.58469317  -1.72156763 
*
