! EnGrad PBEh-3c
%output 
xyzfile=True 
end 
%scf 
maxiter 250 
end
%output
Print[P_Hirshfeld] = 1
end
% maxcore
4000
*xyz 0 1
Lu  -0.01605629   0.06415725   0.01253010 
C    0.44446145   0.80603467   2.50115830 
C    1.46301418  -0.14154569   2.22261085 
C    2.33077123   0.41006356   1.27874545 
C    1.85365121   1.70373630   0.94133971 
C    0.71163679   1.94276976   1.72255342 
H    2.31985800   2.39676868   0.26868551 
H    0.11524979   2.86190377   1.72191822 
H   -0.28355221   0.72696255   3.28207023 
H    1.52862839  -1.12803776   2.66791376 
H    3.24352524  -0.04316986   0.90840796 
C    0.92244070  -0.08991737  -2.44298629 
C   -0.33842986  -0.71573318  -2.45023736 
C    1.06925973  -2.01404956  -1.23043224 
C    1.80302328  -0.91531565  -1.70108877 
H    1.17128004   0.83029472  -2.94307978 
C   -0.25746854  -1.89699781  -1.69949003 
H   -1.21579593  -0.37742375  -3.00094629 
H    2.85889871  -0.74980384  -1.56379381 
H    1.46189644  -2.84560612  -0.65065282 
H   -1.04453599  -2.61960536  -1.57293544 
C   -2.25711180  -1.58648208   1.25658063 
H   -2.24802339  -1.39781621   2.32709020 
H   -1.99610187  -2.64848118   1.10991681 
H   -3.32303733  -1.52131549   0.89024628 
C   -1.91809374   1.94745412  -0.86709260 
H   -2.23536779   0.19896018   0.37568306 
H   -1.10932802   2.55496591  -1.31011781 
H   -2.54429756   2.67307238  -0.32195773 
H   -2.51424851   1.58082350  -1.72346013 
*
