! EnGrad PBEh-3c
%output 
xyzfile=True 
end 
%scf 
maxiter 250 
end
%output
Print[P_Hirshfeld] = 1
end
% maxcore
4000
*xyz 0 1
Lu  -0.03696900   0.06520591   0.01585816 
C    0.44861499   0.80443009   2.49947357 
C    1.46108558  -0.14304583   2.22650728 
C    2.33131475   0.41034975   1.27265481 
C    1.85150390   1.69713741   0.93997303 
C    0.70725355   1.95008682   1.72443370 
H    2.32095941   2.39772104   0.26827768 
H    0.11625049   2.85795681   1.72119761 
H   -0.28947238   0.72411176   3.27881364 
H    1.53074911  -1.12676603   2.66815062 
H    3.24199546  -0.04354635   0.90738003 
C    0.92345273  -0.09089158  -2.43813813 
C   -0.34303231  -0.71478786  -2.45555914 
C    1.06987704  -2.01711678  -1.22805951 
C    1.80038690  -0.91034265  -1.69870218 
H    1.17239585   0.83021484  -2.94447010 
C   -0.25568088  -1.89830763  -1.70089696 
H   -1.21536732  -0.37588531  -2.99610969 
H    2.85916513  -0.74853676  -1.56316432 
H    1.46193904  -2.84425510  -0.65121781 
H   -1.04552974  -2.61861222  -1.56926626 
C   -2.27377017  -1.57010923   1.24600338 
H   -2.24606803  -1.39077288   2.32531373 
H   -1.97997129  -2.63157618   1.10001393 
H   -3.32067208  -1.51946260   0.89470726 
C   -1.92146660   1.93608082  -0.86305237 
H   -2.21290377   0.19105006   0.36994035 
H   -1.10530355   2.54384559  -1.30253157 
H   -2.54193361   2.66427196  -0.31858774 
H   -2.51259811   1.57929500  -1.71856999 
*
