! EnGrad PBEh-3c
%output 
xyzfile=True 
end 
%scf 
maxiter 250 
end
%output
Print[P_Hirshfeld] = 1
end
% maxcore
4000
*xyz 0 1
Lu  -0.10920856   0.06563586   0.03023972 
C    0.45418639   0.80405962   2.50394775 
C    1.45951166  -0.14618171   2.22663387 
C    2.32100731   0.40391247   1.25668394 
C    1.83742053   1.68423007   0.92953066 
C    0.69870157   1.95244926   1.72581130 
H    2.32020101   2.39626758   0.26853961 
H    0.11223577   2.85036764   1.72030095 
H   -0.31114686   0.70814143   3.26095288 
H    1.54354017  -1.12558565   2.67330210 
H    3.23735086  -0.04552243   0.89910260 
C    0.91579750  -0.08580688  -2.42352996 
C   -0.34873015  -0.71855790  -2.46148255 
C    1.06838084  -2.01736649  -1.22152738 
C    1.79181962  -0.89708834  -1.68030785 
H    1.17496220   0.82655568  -2.94572148 
C   -0.25268923  -1.90355853  -1.70803158 
H   -1.22309842  -0.36743699  -2.97862844 
H    2.85630186  -0.74072375  -1.55968056 
H    1.46610871  -2.84352897  -0.65150471 
H   -1.04885038  -2.61680783  -1.55226163 
C   -2.31885308  -1.49765926   1.20980786 
H   -2.23955533  -1.35347903   2.30392957 
H   -1.90630019  -2.53902077   1.05240006 
H   -3.32249293  -1.50865829   0.90477694 
C   -1.92882450   1.88626303  -0.84134387 
H   -2.12261575   0.16107229   0.34160934 
H   -1.08876281   2.48601800  -1.26252681 
H   -2.53169552   2.62466975  -0.30366699 
H   -2.50701546   1.57013483  -1.70148950 
*
