! EnGrad PBEh-3c
%output 
xyzfile=True 
end 
%scf 
maxiter 250 
end
%output
Print[P_Hirshfeld] = 1
end
% maxcore
4000
*xyz 0 1
Lu  -0.00116060   0.03211662   0.03688741 
C    0.44294549   0.79288896   2.51479495 
C    1.43106677  -0.16947265   2.19739932 
C    2.29487935   0.39357616   1.23966194 
C    1.81289256   1.67857694   0.91346125 
C    0.66272950   1.91829006   1.69875983 
H    2.30065711   2.38420988   0.25882812 
H    0.09885883   2.84310813   1.72599480 
H   -0.33874350   0.67957853   3.25018183 
H    1.57127167  -1.12459138   2.68714947 
H    3.21116230  -0.04773312   0.87587996 
C    0.89259934  -0.07426302  -2.39967908 
C   -0.36521738  -0.71663937  -2.43262189 
C    1.05411682  -2.00233755  -1.19506383 
C    1.77235536  -0.88152699  -1.65452549 
H    1.16788079   0.82558667  -2.93197634 
C   -0.26582302  -1.90914873  -1.69436379 
H   -1.24185377  -0.36245067  -2.95716335 
H    2.83367358  -0.71881852  -1.53857930 
H    1.47325625  -2.83992258  -0.65329715 
H   -1.05366088  -2.62959770  -1.53578087 
C   -2.25406499  -1.35104591   1.14792402 
H   -2.23624841  -1.25872690   2.24065441 
H   -1.80607583  -2.34710596   0.96085590 
H   -3.32875135  -1.48286511   0.88553542 
C   -1.92502983   1.77432901  -0.77670328 
H   -2.10507959   0.18579737   0.27088145 
H   -1.06262621   2.35067888  -1.16607915 
H   -2.51886712   2.54529018  -0.26089963 
H   -2.50495405   1.53298183  -1.68171853 
*
