! EnGrad PBEh-3c
%output 
xyzfile=True 
end 
%scf 
maxiter 250 
end
%output
Print[P_Hirshfeld] = 1
end
% maxcore
4000
*xyz -1 1
Pt  -1.11907456  -0.95847196   0.58407875 
Cl  -0.28466712  -0.70648552   2.73880015 
Cl  -2.72072690  -2.38014337   1.17101036 
Cl  -1.75865196  -1.00353502  -1.64717976 
C    1.18555551   0.93195635  -0.47224390 
H    1.45200420   1.99323802  -0.19953228 
H    1.24721918   0.28568849   0.25418728 
H    1.83909339   0.67752728  -1.34142876 
H    0.15749708   1.16052352  -1.08834789 
*
