! EnGrad PBEh-3c
%output 
xyzfile=True 
end 
%scf 
maxiter 250 
end
%output
Print[P_Hirshfeld] = 1
end
% maxcore
4000
*xyz -1 1
Pt  -1.12234483  -0.95955305   0.58234600 
Cl  -0.28577198  -0.70513700   2.72796054 
Cl  -2.71906394  -2.37647720   1.17376752 
Cl  -1.75304768  -1.00269802  -1.64223009 
C    1.16362728   1.00138995  -0.55377374 
H    1.45660555   1.97127201  -0.18989132 
H    1.22624346   0.26653602   0.26642826 
H    1.83700640   0.67724959  -1.32889095 
H    0.19349157   1.12799600  -1.03682650 
*
