! EnGrad PBEh-3c
%output 
xyzfile=True 
end 
%scf 
maxiter 250 
end
%output
Print[P_Hirshfeld] = 1
end
% maxcore
4000
*xyz -1 1
Pt  -1.11997004  -0.95550931   0.57781613 
Cl  -0.28625260  -0.70132903   2.71314240 
Cl  -2.72427297  -2.37588873   1.18142489 
Cl  -1.74337894  -1.00211527  -1.63892728 
C    1.15340550   1.02886180  -0.59315748 
H    1.47088211   1.96521047  -0.16850682 
H    1.19176839   0.27428206   0.24405931 
H    1.84623266   0.67549115  -1.33239282 
H    0.20519339   1.09225828  -0.98523475 
*
