! EnGrad PBEh-3c
%output 
xyzfile=True 
end 
%scf 
maxiter 250 
end
%output
Print[P_Hirshfeld] = 1
end
% maxcore
4000
*xyz -1 1
Pt  -1.11937870  -0.95551329   0.57779480 
Cl  -0.28539153  -0.69991092   2.71404084 
Cl  -2.72462384  -2.37514171   1.18165986 
Cl  -1.74236653  -1.00260137  -1.64095049 
C    1.17272117   1.01610409  -0.57132967 
H    1.47081650   1.96744562  -0.16784640 
H    1.19310113   0.27719523   0.23928333 
H    1.84644274   0.67584440  -1.33698044 
H    0.18194620   1.09788936  -0.99747518 
*
