! EnGrad PBEh-3c
%output 
xyzfile=True 
end 
%scf 
maxiter 250 
end
%output
Print[P_Hirshfeld] = 1
end
% maxcore
4000
*xyz -1 1
Pt  -1.11966505  -0.95539995   0.57741531 
Cl  -0.28462071  -0.69925407   2.71364369 
Cl  -2.72642533  -2.37593946   1.18314169 
Cl  -1.74188898  -1.00231013  -1.64252645 
C    1.17217389   1.01106739  -0.56664188 
H    1.47350085   1.97153911  -0.16532485 
H    1.19301563   0.27844143   0.23875550 
H    1.85036523   0.67531767  -1.34152047 
H    0.17604742   1.09799571  -0.99887997 
*
