! EnGrad PBEh-3c
%output 
xyzfile=True 
end 
%scf 
maxiter 250 
end
%output
Print[P_Hirshfeld] = 1
end
% maxcore
4000
*xyz 0 1
Pd   0.61969288   0.42862088  -0.39629545 
O    2.04546678   1.40225822   0.41804375 
C    1.59975731   2.59092413   0.31413855 
O    0.44900881   2.79208595  -0.11942809 
C    2.58856244   3.72468731   0.58041483 
H    2.08146633   4.58521922   1.01734758 
H    3.01737329   4.09125836  -0.36440265 
H    3.43650542   3.44893955   1.22158811 
N   -1.34433330  -0.55221889  -1.16241061 
C   -1.24703139  -1.46542319  -2.32820558 
H   -0.80259327  -0.89295686  -3.14601388 
H   -2.27482075  -1.81106995  -2.54520505 
H   -0.59917674  -2.32145769  -2.08630466 
C   -2.19573097   0.60818328  -1.50626571 
H   -2.27560335   1.30649568  -0.65236218 
H   -3.17906985   0.20063285  -1.80050260 
H   -1.72673598   1.06527578  -2.38309837 
C   -1.49514101  -0.91413654   1.37882359 
C   -0.82308853  -1.93013297   2.10193918 
C   -0.56234845  -1.79003932   3.46315218 
C   -1.22555368  -0.80738344   4.17014252 
C   -1.92614965   0.21679829   3.52274637 
C   -1.96365466   0.16432761   2.16112444 
H   -1.10548402  -0.67943351   5.22891656 
H   -2.51055975   1.00502299   4.00565977 
H   -0.42842121  -2.80562209   1.57463091 
H   -0.07362062  -2.57153330   4.02387402 
H   -2.43391303   2.34662933   1.73213266 
C   -1.94279835  -1.28319042  -0.03116025 
H   -3.03330053  -1.16014662  -0.08880509 
H   -1.75089402  -2.35458018  -0.17392733 
O    1.92704152  -0.90264674  -1.19047943 
C    2.22543598  -0.58608030  -2.42560066 
O    1.56272709   0.04582993  -3.21446079 
C    3.59936978  -1.18261590  -2.74762048 
H    3.54556406  -2.27687127  -2.77285379 
H    4.39179093  -0.91759574  -2.03266294 
H    3.84812546  -0.84022004  -3.74396621 
*
