! EnGrad PBEh-3c
%output 
xyzfile=True 
end 
%scf 
maxiter 250 
end
%output
Print[P_Hirshfeld] = 1
end
% maxcore
4000
*xyz 0 1
Pd   0.59362163   0.37637927  -0.41296959 
O    2.04597075   1.41132112   0.41082012 
C    1.61626496   2.58567810   0.30801614 
O    0.42871365   2.77995544  -0.10761189 
C    2.58708728   3.69340077   0.58742598 
H    2.10987508   4.56787832   1.01546810 
H    3.03144100   4.04503423  -0.35367667 
H    3.43299644   3.40360948   1.22471020 
N   -1.32268547  -0.56214876  -1.13676767 
C   -1.23789381  -1.51580305  -2.27991671 
H   -0.76088410  -0.98391169  -3.11574947 
H   -2.25447111  -1.89201785  -2.51682810 
H   -0.59242580  -2.36949811  -2.00686277 
C   -2.18397030   0.56758109  -1.54716552 
H   -2.28233335   1.28939024  -0.70145587 
H   -3.17363177   0.17605559  -1.84420290 
H   -1.71048685   1.02172605  -2.41681749 
C   -1.52423667  -0.90682207   1.40755766 
C   -0.89396230  -1.93739731   2.10853206 
C   -0.63926100  -1.82798512   3.47754153 
C   -1.22372265  -0.76999444   4.19106943 
C   -1.85963301   0.29071491   3.54162117 
C   -1.91394514   0.25824645   2.15156761 
H   -1.10084859  -0.68536056   5.25413093 
H   -2.32844662   1.18460485   4.00774200 
H   -0.57203606  -2.85101009   1.58193205 
H   -0.15140919  -2.61733394   4.03594523 
H   -2.32947245   2.19215128   1.63620825 
C   -1.97827246  -1.24899776  -0.01836831 
H   -3.06059365  -1.08828149  -0.08459150 
H   -1.81497043  -2.32688129  -0.14749950 
O    1.93029469  -0.88030169  -1.21844152 
C    2.24436928  -0.59405877  -2.41349235 
O    1.50328367   0.04673194  -3.23211311 
C    3.60197759  -1.10042689  -2.77865119 
H    3.57995243  -2.19528755  -2.82221699 
H    4.38499245  -0.84488954  -2.03099287 
H    3.84586097  -0.72257554  -3.75160382 
*
