! EnGrad PBEh-3c
%output 
xyzfile=True 
end 
%scf 
maxiter 250 
end
%output
Print[P_Hirshfeld] = 1
end
% maxcore
4000
*xyz 0 1
Pd   0.53865858   0.34258590  -0.43044246 
O    2.05280066   1.40516055   0.41887206 
C    1.62129477   2.59271076   0.29117632 
O    0.44802914   2.77464897  -0.09153214 
C    2.59477586   3.69098865   0.58998762 
H    2.12037773   4.56036461   1.01953648 
H    3.03647716   4.01583204  -0.34815466 
H    3.42207595   3.37736100   1.22416152 
N   -1.29315511  -0.56767776  -1.11200868 
C   -1.22611497  -1.53421880  -2.23809831 
H   -0.75240468  -1.04838956  -3.09382938 
H   -2.22761955  -1.93128693  -2.50604992 
H   -0.60285507  -2.38544358  -1.96601983 
C   -2.16226033   0.53383285  -1.56975747 
H   -2.28510536   1.26675362  -0.76294785 
H   -3.16491207   0.17344572  -1.86294619 
H   -1.70402795   1.00347494  -2.43161901 
C   -1.55800863  -0.89340039   1.41831437 
C   -0.92551855  -1.93626863   2.12372204 
C   -0.72085912  -1.84591035   3.49881043 
C   -1.20483604  -0.73150203   4.19194194 
C   -1.82172193   0.33145226   3.51101179 
C   -1.88313410   0.33312440   2.11425799 
H   -1.08772812  -0.68804764   5.27209313 
H   -2.21042627   1.22000411   4.00935346 
H   -0.65882135  -2.86327313   1.60241109 
H   -0.20396958  -2.64189340   4.04229437 
H   -2.26383791   2.08773173   1.61269509 
C   -1.99565056  -1.23864233   0.00637222 
H   -3.07375291  -1.05372339  -0.07179073 
H   -1.86371807  -2.31262572  -0.13226789 
O    1.90921591  -0.84708174  -1.20513114 
C    2.22787798  -0.57136493  -2.43552627 
O    1.51186624   0.00327295  -3.20777800 
C    3.60900277  -1.05935173  -2.80201003 
H    3.60196060  -2.14362153  -2.85806507 
H    4.36540323  -0.79782398  -2.04993218 
H    3.86325710  -0.65384742  -3.77032528 
*
