! EnGrad PBEh-3c
%output 
xyzfile=True 
end 
%scf 
maxiter 250 
end
%output
Print[P_Hirshfeld] = 1
end
% maxcore
4000
*xyz 0 1
Pd   0.49372121   0.31808411  -0.40940263 
O    2.03128240   1.34648926   0.40227548 
C    1.59668555   2.57169911   0.28210038 
O    0.45890527   2.78556448  -0.07445739 
C    2.61580049   3.65655008   0.59241526 
H    2.15557061   4.54190124   1.02911300 
H    3.07215515   3.94402584  -0.34556017 
H    3.41158771   3.29402605   1.23620062 
N   -1.29933396  -0.61095338  -1.09945383 
C   -1.18389583  -1.63852034  -2.14791456 
H   -0.69899438  -1.23141072  -3.01870304 
H   -2.16228268  -2.04910313  -2.43806770 
H   -0.59891186  -2.47314447  -1.80904048 
C   -2.12802364   0.47714546  -1.63872606 
H   -2.28922504   1.23122973  -0.89813727 
H   -3.12494333   0.12297499  -1.93553912 
H   -1.65877090   0.92176381  -2.50364077 
C   -1.61801407  -0.81453109   1.44882002 
C   -1.09476247  -1.94362923   2.17629524 
C   -0.88602125  -1.86936104   3.54882961 
C   -1.18531828  -0.67994084   4.19522036 
C   -1.65046426   0.47590679   3.46208118 
C   -1.79983172   0.51510920   2.07018002 
H   -1.06181434  -0.67025808   5.29151921 
H   -1.85347133   1.40905625   4.00332891 
H   -0.94105044  -2.91219267   1.65501972 
H   -0.40041422  -2.70909630   4.06610419 
H   -2.04297020   1.71800884   1.53293591 
C   -2.05400431  -1.19639565   0.06592654 
H   -3.11359199  -0.92421173  -0.05242049 
H   -2.01213322  -2.27415133  -0.08021037 
O    1.91041919  -0.81112196  -1.19760711 
C    2.19047573  -0.52104474  -2.46028967 
O    1.45060782  -0.06217008  -3.23372407 
C    3.62839209  -0.91430168  -2.84998147 
H    3.68000047  -1.99230294  -2.97762072 
H    4.33369840  -0.64518676  -2.08482756 
H    3.87855506  -0.42481576  -3.80448202 
*
