! EnGrad PBEh-3c
%output 
xyzfile=True 
end 
%scf 
maxiter 250 
end
%output
Print[P_Hirshfeld] = 1
end
% maxcore
4000
*xyz 0 1
Pd   0.46971813   0.30911453  -0.38055405 
O    1.99950341   1.30656640   0.38536527 
C    1.60149688   2.54125976   0.28832468 
O    0.44607146   2.80475447  -0.07053269 
C    2.62701008   3.62280006   0.59479369 
H    2.18406183   4.52476590   1.03571464 
H    3.10503943   3.89149752  -0.34824920 
H    3.40451957   3.22771716   1.24815839 
N   -1.31518349  -0.64708270  -1.08891194 
C   -1.15334368  -1.72774584  -2.07533503 
H   -0.65147659  -1.37588723  -2.95911380 
H   -2.11127198  -2.13922174  -2.37915483 
H   -0.58731920  -2.55106405  -1.67359073 
C   -2.10146672   0.42779818  -1.70438555 
H   -2.28948461   1.21561589  -0.99724352 
H   -3.08841013   0.07705690  -1.99599486 
H   -1.61502252   0.85292188  -2.56697170 
C   -1.65394056  -0.75107120   1.47896547 
C   -1.24754357  -1.93456057   2.21290996 
C   -1.01038162  -1.87928665   3.58057969 
C   -1.17592909  -0.62901959   4.19368488 
C   -1.49851024   0.58499529   3.43257301 
C   -1.73315445   0.64597243   2.02705130 
H   -1.04051422  -0.64407151   5.29266833 
H   -1.56255690   1.54090912   3.99220623 
H   -1.17619399  -2.93582303   1.70607614 
H   -0.57276982  -2.75670251   4.08870091 
H   -1.85805244   1.38275942   1.49872185 
C   -2.10567401  -1.15648706   0.09826993 
H   -3.14189007  -0.81942502  -0.03724879 
H   -2.13453891  -2.24350640  -0.03310884 
O    1.91763676  -0.78327680  -1.19942043 
C    2.17704838  -0.49289587  -2.46201743 
O    1.37790370  -0.11179403  -3.27728631 
C    3.63215202  -0.79285094  -2.89631539 
H    3.74725311  -1.86845205  -3.07942188 
H    4.31484962  -0.51657113  -2.10946011 
H    3.88472233  -0.24069911  -3.82337801 
*
