! EnGrad PBEh-3c
%output 
xyzfile=True 
end 
%scf 
maxiter 250 
end
%output
Print[P_Hirshfeld] = 1
end
% maxcore
4000
*xyz 0 1
Pd   0.48255791   0.32917903  -0.36494443 
O    1.98573691   1.30247608   0.37290920 
C    1.59310563   2.52765504   0.29585127 
O    0.44873801   2.80454395  -0.06530233 
C    2.62568414   3.61338325   0.59284599 
H    2.18290995   4.51971367   1.03436054 
H    3.11060365   3.89280717  -0.35374160 
H    3.40297493   3.22356457   1.25049318 
N   -1.33226035  -0.64938898  -1.09250012 
C   -1.14975659  -1.73848296  -2.07276026 
H   -0.64685209  -1.38043521  -2.95743353 
H   -2.11193504  -2.13705902  -2.37077927 
H   -0.57788888  -2.56016463  -1.65606808 
C   -2.10290231   0.43042363  -1.71191014 
H   -2.28806453   1.22658780  -0.99848312 
H   -3.08360931   0.06649420  -2.00229851 
H   -1.60435761   0.85103711  -2.57765570 
C   -1.64360634  -0.73405710   1.48308112 
C   -1.27967668  -1.90838133   2.21193388 
C   -1.00920626  -1.84887782   3.57553373 
C   -1.18284212  -0.61562628   4.17705294 
C   -1.47489653   0.59789030   3.43020759 
C   -1.68883666   0.44550068   2.13258285 
H   -1.04385600  -0.62385573   5.26898849 
H   -1.53787864   1.52219745   3.98687050 
H   -1.19584203  -2.90132445   1.72043968 
H   -0.60567625  -2.74404261   4.08775776 
H   -1.85559990   1.42372197   1.43332041 
C   -2.11169358  -1.14687065   0.08731354 
H   -3.14058036  -0.81574606  -0.03523920 
H   -2.14356836  -2.23915076  -0.01639599 
O    1.92191216  -0.78956391  -1.20973415 
C    2.16855247  -0.48908626  -2.46540830 
O    1.37471740  -0.11429214  -3.27949271 
C    3.62293670  -0.78348433  -2.89976908 
H    3.75393856  -1.85892517  -3.08919439 
H    4.31984991  -0.50406824  -2.11041006 
H    3.88434270  -0.23556127  -3.81542131 
*
