! EnGrad PBEh-3c
%output 
xyzfile=True 
end 
%scf 
maxiter 250 
end
%output
Print[P_Hirshfeld] = 1
end
% maxcore
4000
*xyz 0 1
Pd   0.53441825   0.46226467  -0.42554047 
O    2.10158840   1.38868965   0.49070824 
C    1.59469313   2.67911026   0.28122191 
O    0.55077458   2.80029503  -0.11154553 
C    2.59181412   3.80647391   0.56779479 
H    2.01863382   4.61605867   1.02780867 
H    2.97602829   4.16822743  -0.37883179 
H    3.42052710   3.53970636   1.20570022 
N   -1.30975818  -0.51738150  -1.16270959 
C   -1.26541745  -1.32795416  -2.37853064 
H   -0.91694993  -0.73941485  -3.20621362 
H   -2.28691681  -1.64617049  -2.62916355 
H   -0.64801624  -2.19251996  -2.26085167 
C   -2.18288677   0.63902935  -1.43939607 
H   -2.26336550   1.31137312  -0.62228745 
H   -3.18846057   0.28841286  -1.69886436 
H   -1.77674481   1.17063644  -2.29354720 
C   -1.47513492  -0.96255592   1.32602384 
C   -0.63856333  -1.87679080   2.09419706 
C   -0.49922410  -1.74931079   3.44286099 
C   -1.19174478  -0.79761804   4.12260093 
C   -2.09042983   0.05022052   3.41787761 
C   -2.05395836   0.03953741   2.09666403 
H   -1.09267557  -0.67902795   5.20051118 
H   -2.84013502   0.52625600   4.00517322 
H   -0.14768646  -2.69281026   1.58892397 
H    0.08498688  -2.48288988   3.99928256 
H   -2.63881261   2.64305227   1.97015043 
C   -1.87562673  -1.36471824  -0.03529393 
H   -2.97314167  -1.32292161  -0.07131715 
H   -1.64270998  -2.40564138  -0.22516829 
O    1.85442152  -0.86267590  -1.11838015 
C    2.25036088  -0.62582533  -2.37769982 
O    1.69096764   0.02438185  -3.17494492 
C    3.58477019  -1.34941119  -2.72436660 
H    3.47569259  -2.42316433  -2.68153813 
H    4.37159920  -1.05462554  -2.06917014 
H    3.89806650  -1.08299450  -3.75108119 
*
