! EnGrad PBEh-3c
%output 
xyzfile=True 
end 
%scf 
maxiter 250 
end
%output
Print[P_Hirshfeld] = 1
end
% maxcore
4000
*xyz 0 1
Pd   0.48208920   0.32644993  -0.37086064 
O    1.98819514   1.31114633   0.37132101 
C    1.59726563   2.53139638   0.29679358 
O    0.44670959   2.79755219  -0.06028225 
C    2.62243825   3.60981996   0.59176971 
H    2.18141043   4.51483956   1.03128775 
H    3.10784857   3.89457760  -0.35229985 
H    3.40185972   3.22665841   1.24962572 
N   -1.32700364  -0.64310633  -1.08867839 
C   -1.15127095  -1.73332176  -2.07356342 
H   -0.64716803  -1.37135430  -2.96213101 
H   -2.11917331  -2.13278815  -2.37415874 
H   -0.57510231  -2.55567342  -1.65926714 
C   -2.10512600   0.43501457  -1.71045079 
H   -2.28742482   1.23095367  -0.99245089 
H   -3.08827627   0.06663893  -2.00249636 
H   -1.60421423   0.85591919  -2.57606128 
C   -1.63516493  -0.78466061   1.47610673 
C   -1.27508109  -1.89986215   2.20703074 
C   -1.00270585  -1.84028606   3.56512239 
C   -1.18380138  -0.60169083   4.17989192 
C   -1.47231729   0.57217020   3.47252980 
C   -1.68791734   0.42847918   2.12081214 
H   -1.04791511  -0.61662367   5.25926420 
H   -1.54824674   1.51433475   3.98452469 
H   -1.18687233  -2.88163730   1.72145319 
H   -0.60735193  -2.73079837   4.08405509 
H   -1.86421351   1.43305369   1.42912641 
C   -2.10873868  -1.13992370   0.08012188 
H   -3.14144478  -0.82163874  -0.03572973 
H   -2.13615504  -2.23573259  -0.00979522 
O    1.91900967  -0.79003011  -1.21895733 
C    2.17670292  -0.49998029  -2.46093546 
O    1.37316041  -0.10467397  -3.27753661 
C    3.61862191  -0.78823016  -2.89583663 
H    3.74999073  -1.86145384  -3.08359861 
H    4.32209203  -0.50971110  -2.10919036 
H    3.88334237  -0.24821396  -3.81005694 
*
