! EnGrad PBEh-3c
%output 
xyzfile=True 
end 
%scf 
maxiter 250 
end
%output
Print[P_Hirshfeld] = 1
end
% maxcore
4000
*xyz 0 1
Pd   0.48210752   0.32563301  -0.37788921 
O    1.99102605   1.31591467   0.35853171 
C    1.59943726   2.53286743   0.30028498 
O    0.43790467   2.78145392  -0.04193799 
C    2.61829513   3.59515984   0.58816231 
H    2.18104646   4.49731433   1.02368191 
H    3.10679724   3.88870145  -0.34976592 
H    3.39736945   3.22113668   1.25017597 
N   -1.32194234  -0.63293460  -1.08376625 
C   -1.14840038  -1.73803778  -2.06617482 
H   -0.64031004  -1.37428675  -2.96103768 
H   -2.12725929  -2.13608028  -2.36883536 
H   -0.56447326  -2.55798300  -1.64078540 
C   -2.10846729   0.44285560  -1.71851994 
H   -2.28703522   1.24100068  -0.99597823 
H   -3.09202290   0.05676507  -2.01525661 
H   -1.59490534   0.85679626  -2.58468370 
C   -1.62705959  -0.84991191   1.45946129 
C   -1.28610272  -1.90430866   2.21766176 
C   -1.00885507  -1.80446844   3.54649964 
C   -1.17847340  -0.58176694   4.19506746 
C   -1.44266466   0.53829821   3.51776938 
C   -1.66655922   0.40596139   2.10471542 
H   -1.05600574  -0.58702503   5.23588552 
H   -1.51803472   1.52162388   3.98005155 
H   -1.20697917  -2.83245241   1.73401973 
H   -0.65108915  -2.69896584   4.07582661 
H   -1.84485156   1.35747320   1.42083081 
C   -2.10928053  -1.12656750   0.06951975 
H   -3.15030421  -0.81593599  -0.03295224 
H   -2.14038646  -2.21832381   0.01785318 
O    1.91315868  -0.79404499  -1.23687666 
C    2.18087385  -0.51209045  -2.46549428 
O    1.36503131  -0.08652596  -3.27456457 
C    3.61239441  -0.77982255  -2.88886982 
H    3.75174295  -1.84624382  -3.08731083 
H    4.32439767  -0.50082072  -2.11096865 
H    3.88343230  -0.24746349  -3.79923103 
*
