! EnGrad PBEh-3c
%output 
xyzfile=True 
end 
%scf 
maxiter 250 
end
%output
Print[P_Hirshfeld] = 1
end
% maxcore
4000
*xyz 0 1
Pd   0.49253326   0.33133901  -0.39610261 
O    2.00882387   1.32925851   0.34898365 
C    1.60162585   2.53750286   0.30217296 
O    0.42284702   2.76172022  -0.02212443 
C    2.61324523   3.59602092   0.58334525 
H    2.16776874   4.48246771   1.01269143 
H    3.09351462   3.90004333  -0.34706405 
H    3.39428568   3.23711735   1.24716502 
N   -1.31157050  -0.60929190  -1.08976394 
C   -1.15604254  -1.71020641  -2.08440226 
H   -0.65176731  -1.32767045  -2.97498499 
H   -2.14844785  -2.10343865  -2.37968953 
H   -0.55777751  -2.52876566  -1.66677189 
C   -2.12080609   0.46862345  -1.70657385 
H   -2.28595581   1.25960968  -0.96836221 
H   -3.10349516   0.06390602  -2.00883323 
H   -1.59946418   0.88120842  -2.57116291 
C   -1.61411507  -0.88130856   1.43271712 
C   -1.23932552  -1.92133995   2.22824063 
C   -0.96943235  -1.77403298   3.53906197 
C   -1.16513130  -0.61530550   4.21544325 
C   -1.47260820   0.50406431   3.51594835 
C   -1.67500399   0.39252869   2.05825180 
H   -1.06771096  -0.55906597   5.23858117 
H   -1.58309078   1.46330749   3.97405211 
H   -1.14472010  -2.80067340   1.72406569 
H   -0.64850433  -2.63649382   4.05852042 
H   -1.87685438   1.32884205   1.47673790 
C   -2.09384347  -1.13853022   0.05007859 
H   -3.14733678  -0.84465925  -0.03405084 
H   -2.10422730  -2.21178315   0.02618603 
O    1.90179501  -0.81279377  -1.24609074 
C    2.19582405  -0.53769985  -2.45977804 
O    1.37089082  -0.04083505  -3.27443387 
C    3.60732444  -0.81601682  -2.86652063 
H    3.73137990  -1.87412674  -3.05614782 
H    4.33119617  -0.53469091  -2.10431817 
H    3.88007659  -0.30985802  -3.78173236 
*
