! EnGrad PBEh-3c
%output 
xyzfile=True 
end 
%scf 
maxiter 250 
end
%output
Print[P_Hirshfeld] = 1
end
% maxcore
4000
*xyz 0 1
Pd   0.49298845   0.33094481  -0.40848008 
O    2.02251286   1.32421079   0.33417028 
C    1.59180839   2.52903123   0.29874827 
O    0.41465268   2.74686557   0.00101302 
C    2.61342823   3.59146502   0.58153640 
H    2.16230552   4.47294515   1.00829792 
H    3.09098134   3.89233898  -0.34746877 
H    3.39043819   3.23079860   1.24715142 
N   -1.30928479  -0.60423830  -1.09488607 
C   -1.15567115  -1.70689178  -2.08273302 
H   -0.65181841  -1.32927561  -2.97053526 
H   -2.14604453  -2.10259535  -2.37399309 
H   -0.55562980  -2.52058985  -1.66068082 
C   -2.12352289   0.47242114  -1.71048172 
H   -2.29030330   1.26435136  -0.97402454 
H   -3.10257320   0.06424520  -2.01648897 
H   -1.59984491   0.88524147  -2.57199807 
C   -1.61616572  -0.85839695   1.43739512 
C   -1.24059961  -1.90302199   2.23096527 
C   -0.97025816  -1.78314438   3.55321092 
C   -1.16002886  -0.60252153   4.21250119 
C   -1.46724957   0.51227510   3.47226462 
C   -1.66444011   0.41028376   2.04448630 
H   -1.06903849  -0.54167620   5.27559324 
H   -1.56378793   1.47112454   3.96972838 
H   -1.14413157  -2.83030758   1.71376523 
H   -0.67008740  -2.62064726   4.06017655 
H   -1.85949348   1.24967653   1.48653523 
C   -2.09682546  -1.13788022   0.05161210 
H   -3.14881113  -0.84187245  -0.03163856 
H   -2.10377635  -2.21121274   0.03194509 
O    1.89333782  -0.82644248  -1.24580226 
C    2.17924602  -0.52632558  -2.47120314 
O    1.38166516  -0.02315729  -3.26862250 
C    3.61198666  -0.81630026  -2.86267568 
H    3.73001193  -1.87420385  -3.05125962 
H    4.33021590  -0.53318433  -2.09969387 
H    3.88367208  -0.31111903  -3.77810670 
*
