! EnGrad PBEh-3c
%output 
xyzfile=True 
end 
%scf 
maxiter 250 
end
%output
Print[P_Hirshfeld] = 1
end
% maxcore
4000
*xyz 0 1
Pd   0.50485335   0.33597403  -0.42699714 
O    2.04353272   1.31568713   0.31395817 
C    1.59103157   2.51547361   0.29712284 
O    0.39696513   2.72916351   0.02550492 
C    2.60613850   3.59563108   0.57959122 
H    2.14505604   4.47884027   1.00782844 
H    3.08356866   3.89351703  -0.35416153 
H    3.38969191   3.23462719   1.24557176 
N   -1.31724272  -0.60010980  -1.10523840 
C   -1.16254192  -1.68151822  -2.09814225 
H   -0.66457847  -1.30206002  -2.97784294 
H   -2.14323902  -2.08144234  -2.37781584 
H   -0.56234084  -2.48975514  -1.68898614 
C   -2.12841085   0.48072884  -1.69880204 
H   -2.29928557   1.26724992  -0.96356564 
H   -3.10259483   0.08282472  -2.00915132 
H   -1.61660779   0.90459651  -2.55649968 
C   -1.61320209  -0.80239071   1.44887422 
C   -1.20347379  -1.90271045   2.19797470 
C   -0.95921952  -1.78654922   3.55959994 
C   -1.16200642  -0.58235300   4.20606289 
C   -1.49641556   0.52025362   3.40899800 
C   -1.67291930   0.41684149   2.06411572 
H   -1.07092205  -0.53582818   5.32498214 
H   -1.60716128   1.45572470   3.95574606 
H   -1.08681276  -2.88911150   1.69526487 
H   -0.62573305  -2.65434265   4.09418934 
H   -1.89051459   1.27581236   1.49082333 
C   -2.08616057  -1.14608731   0.06261444 
H   -3.13894111  -0.85948002  -0.03481367 
H   -2.07678445  -2.23656023   0.00578711 
O    1.87864505  -0.85444969  -1.24213278 
C    2.16574814  -0.50566856  -2.47148248 
O    1.41267787   0.00883267  -3.25988326 
C    3.61480292  -0.84356361  -2.85286080 
H    3.71452908  -1.91542494  -3.01978717 
H    4.32977487  -0.56138669  -2.08108924 
H    3.88954044  -0.34513438  -3.77956356 
*
