! EnGrad PBEh-3c
%output 
xyzfile=True 
end 
%scf 
maxiter 250 
end
%output
Print[P_Hirshfeld] = 1
end
% maxcore
4000
*xyz 0 1
Pd   0.53078488   0.35392446  -0.46814474 
O    2.08125337   1.31027861   0.24738046 
C    1.58814999   2.48998263   0.30321400 
O    0.37239475   2.66063306   0.10165547 
C    2.58012403   3.59323048   0.57235784 
H    2.10414439   4.47456685   0.99849585 
H    3.06222901   3.89440326  -0.36622819 
H    3.37743558   3.24470541   1.23794084 
N   -1.32976822  -0.57171394  -1.10753249 
C   -1.17568350  -1.62413497  -2.12603079 
H   -0.68719260  -1.22749056  -3.00786658 
H   -2.15514084  -2.03035879  -2.38922766 
H   -0.56039621  -2.42594507  -1.73771529 
C   -2.14337151   0.51159897  -1.67658579 
H   -2.31772005   1.28744884  -0.93363670 
H   -3.11113368   0.11696064  -2.00111445 
H   -1.64290317   0.95603232  -2.53174542 
C   -1.57482906  -0.82849212   1.42812592 
C   -1.11933238  -1.92892986   2.17362750 
C   -0.91943015  -1.77033272   3.55441512 
C   -1.15920695  -0.57569696   4.22179902 
C   -1.52148637   0.51451296   3.42877272 
C   -1.69147491   0.39225233   2.06045988 
H   -1.09101122  -0.48827520   5.32180029 
H   -1.69869235   1.42365775   3.90862719 
H   -0.97104406  -2.89830268   1.69234658 
H   -0.57385496  -2.65789737   4.13901431 
H   -1.96013510   1.30513976   1.48669202 
C   -2.05831736  -1.16126073   0.05541921 
H   -3.12051010  -0.90205708  -0.03998903 
H   -2.01130745  -2.25421182  -0.02491990 
O    1.83041959  -0.91691301  -1.27183067 
C    2.18393826  -0.50508098  -2.45489827 
O    1.46030424   0.11155111  -3.24122465 
C    3.60334149  -0.90473246  -2.82408660 
H    3.67623562  -1.99338864  -2.94538874 
H    4.32546741  -0.62457521  -2.04406558 
H    3.90095079  -0.43760020  -3.76481929 
*
