! EnGrad PBEh-3c
%output 
xyzfile=True 
end 
%scf 
maxiter 250 
end
%output
Print[P_Hirshfeld] = 1
end
% maxcore
4000
*xyz 0 1
Pd   0.50609579   0.44210400  -0.44186582 
O    2.09665193   1.43928695   0.50054350 
C    1.66239693   2.64823039   0.28903877 
O    0.52790375   2.80670374  -0.11746928 
C    2.58057028   3.80803626   0.56832765 
H    2.01636809   4.61927541   1.02923948 
H    2.97247644   4.17134912  -0.37998752 
H    3.41765790   3.54441523   1.20411889 
N   -1.28848051  -0.51137843  -1.13367451 
C   -1.27528284  -1.30971217  -2.37096611 
H   -0.92547196  -0.73136896  -3.21608377 
H   -2.28766167  -1.63884477  -2.64233094 
H   -0.65212009  -2.18398762  -2.27352715 
C   -2.17555921   0.62230328  -1.44265023 
H   -2.26288903   1.31055326  -0.62411554 
H   -3.19358645   0.30092909  -1.69182803 
H   -1.78280745   1.18200464  -2.28653987 
C   -1.46777490  -0.98844426   1.33400715 
C   -0.62522645  -1.85617641   2.07866630 
C   -0.50504145  -1.76036100   3.44753500 
C   -1.18678805  -0.77840375   4.12340470 
C   -2.09710302   0.02424736   3.42202922 
C   -2.06065074   0.04411270   2.06065698 
H   -1.08981995  -0.68136919   5.19961107 
H   -2.86532869   0.49224581   4.01120136 
H   -0.13051436  -2.68481475   1.59300438 
H    0.09657153  -2.47646333   3.99764887 
H   -2.65236111   2.66519074   1.98863802 
C   -1.87244966  -1.36006858  -0.05253632 
H   -2.97088703  -1.33719337  -0.06504702 
H   -1.63734072  -2.40981657  -0.22594451 
O    1.84117024  -0.83912058  -1.12805609 
C    2.26919777  -0.64794532  -2.35337416 
O    1.69860179   0.02162545  -3.16774295 
C    3.57134204  -1.35293991  -2.73712567 
H    3.47073268  -2.43246042  -2.67536820 
H    4.37110813  -1.06148854  -2.07064457 
H    3.90668751  -1.10132457  -3.75036425 
*
