! EnGrad PBEh-3c
%output 
xyzfile=True 
end 
%scf 
maxiter 250 
end
%output
Print[P_Hirshfeld] = 1
end
% maxcore
4000
*xyz 0 1
Pd   0.54932265   0.46445747  -0.41829607 
O    2.08454337   1.40227142   0.47763968 
C    1.62815650   2.65080906   0.29904502 
O    0.51895958   2.80672980  -0.12215077 
C    2.58797112   3.80398718   0.56771523 
H    2.02208377   4.61514513   1.02699179 
H    2.97885594   4.16648859  -0.37944398 
H    3.42221540   3.53501078   1.20711491 
N   -1.31504082  -0.51936209  -1.16503636 
C   -1.26706720  -1.33441548  -2.37896033 
H   -0.91120358  -0.74419918  -3.20371093 
H   -2.28580957  -1.65197633  -2.62394293 
H   -0.64379813  -2.19996708  -2.25326553 
C   -2.18509460   0.63746903  -1.44426266 
H   -2.26397897   1.31417079  -0.61855544 
H   -3.18692705   0.28360682  -1.70298490 
H   -1.77403961   1.16579688  -2.29781699 
C   -1.46939900  -0.96055231   1.33470417 
C   -0.65368134  -1.87632057   2.08810761 
C   -0.49473011  -1.75211668   3.44633201 
C   -1.20034681  -0.79657044   4.12355024 
C   -2.07941501   0.05602679   3.43158431 
C   -2.05108790   0.04189219   2.09765810 
H   -1.09389322  -0.67864001   5.19972576 
H   -2.82730229   0.54778159   4.00384157 
H   -0.15782447  -2.69858904   1.58716380 
H    0.07763339  -2.48532070   3.99958638 
H   -2.63058793   2.62992854   1.95946890 
C   -1.87982234  -1.35939717  -0.03771812 
H   -2.97494079  -1.31585904  -0.07340517 
H   -1.64571894  -2.40504988  -0.22334504 
O    1.85984708  -0.86755241  -1.12441180 
C    2.25545096  -0.63300638  -2.36625626 
O    1.67681522   0.03637983  -3.18989652 
C    3.58361922  -1.34127200  -2.72686630 
H    3.47839914  -2.41919057  -2.68474577 
H    4.37498731  -1.04882969  -2.06510532 
H    3.89423455  -1.07352121  -3.74882354 
*
