! EnGrad PBEh-3c
%output 
xyzfile=True 
end 
%scf 
maxiter 250 
end
%output
Print[P_Hirshfeld] = 1
end
% maxcore
4000
*xyz 0 1
Pd   0.62150113   0.49026007  -0.38296540 
O    2.05552464   1.35102751   0.43690954 
C    1.59716469   2.64711000   0.31805169 
O    0.48327995   2.80637864  -0.13289575 
C    2.59316949   3.78331273   0.57212373 
H    2.03781533   4.60681909   1.02266531 
H    2.99354138   4.15188784  -0.37978447 
H    3.43084578   3.51212438   1.21301020 
N   -1.35053034  -0.53186507  -1.19187585 
C   -1.26196855  -1.38212103  -2.38283569 
H   -0.87633684  -0.77769932  -3.18403577 
H   -2.28237682  -1.69038350  -2.59073464 
H   -0.62332071  -2.24076627  -2.20463989 
C   -2.19896608   0.64511411  -1.46143155 
H   -2.26675028   1.32211074  -0.60873865 
H   -3.17846213   0.25073194  -1.73044650 
H   -1.75636998   1.13287775  -2.32464371 
C   -1.46582927  -0.92630693   1.34981451 
C   -0.71643846  -1.90477241   2.09472434 
C   -0.48835289  -1.74734439   3.44515364 
C   -1.22541954  -0.81688252   4.13617080 
C   -2.02852867   0.11052627   3.47659960 
C   -2.02959767   0.05552190   2.13400351 
H   -1.10179156  -0.67521691   5.19807393 
H   -2.74243460   0.68383602   3.99685203 
H   -0.22816486  -2.73079005   1.57759961 
H    0.03473579  -2.50867540   4.00681494 
H   -2.57732532   2.54982602   1.89135737 
C   -1.89968692  -1.34039226  -0.02956054 
H   -2.98816294  -1.26868039  -0.08593126 
H   -1.66891104  -2.39542711  -0.21254572 
O    1.89440339  -0.90730791  -1.13547719 
C    2.22497810  -0.59829081  -2.40158904 
O    1.64387362   0.04433635  -3.20511371 
C    3.59282833  -1.30111292  -2.72547257 
H    3.49716896  -2.38684344  -2.70748145 
H    4.38911206  -1.01401008  -2.04780885 
H    3.87056384  -1.00850349  -3.74160815 
*
