! EnGrad PBEh-3c
%output 
xyzfile=True 
end 
%scf 
maxiter 250 
end
%output
Print[P_Hirshfeld] = 1
end
% maxcore
4000
*xyz 0 1
Pd   0.57009869   0.47188456  -0.40812640 
O    2.07619054   1.38752124   0.46591581 
C    1.61923574   2.64974431   0.30451595 
O    0.50868947   2.80662872  -0.12524363 
C    2.58946743   3.79803619   0.56898419 
H    2.02661198   4.61274854   1.02574644 
H    2.98308303   4.16228587  -0.37954199 
H    3.42469959   3.52842310   1.20881183 
N   -1.32525621  -0.52296098  -1.17276190 
C   -1.26559959  -1.34814717  -2.38007582 
H   -0.90116745  -0.75384195  -3.19804758 
H   -2.28482148  -1.66303155  -2.61438417 
H   -0.63790386  -2.21171082  -2.23926900 
C   -2.18908740   0.63966961  -1.44920460 
H   -2.26477667   1.31645625  -0.61572975 
H   -3.18449048   0.27414403  -1.71088952 
H   -1.76895354   1.15632136  -2.30553886 
C   -1.46837148  -0.95069503   1.33905357 
C   -0.67174551  -1.88451022   2.09001219 
C   -0.49289448  -1.75074301   3.44599283 
C   -1.20756381  -0.80241712   4.12718298 
C   -2.06476775   0.07171406   3.44454163 
C   -2.04490210   0.04581540   2.10811986 
H   -1.09616670  -0.67765469   5.19925029 
H   -2.80287376   0.58694384   4.00182968 
H   -0.17807143  -2.70785786   1.58441082 
H    0.06528564  -2.49204318   4.00166706 
H   -2.61525669   2.60687163   1.93986350 
C   -1.88554021  -1.35392675  -0.03537002 
H   -2.97874669  -1.30227902  -0.07701071 
H   -1.65239461  -2.40228003  -0.22023654 
O    1.86979385  -0.87899574  -1.12759689 
C    2.24667957  -0.62301376  -2.37642654 
O    1.66733322   0.03867005  -3.19427668 
C    3.58627000  -1.32971251  -2.72646512 
H    3.48380190  -2.40987969  -2.69129007 
H    4.37905301  -1.03880712  -2.06012666 
H    3.88742111  -1.05480635  -3.74674664 
*
