! EnGrad PBEh-3c
%output 
xyzfile=True 
end 
%scf 
maxiter 250 
end
%output
Print[P_Hirshfeld] = 1
end
% maxcore
4000
*xyz 0 1
Pd   0.55431895   0.46624356  -0.41585043 
O    2.08253465   1.39872424   0.47482028 
C    1.62601120   2.65055301   0.30036069 
O    0.51648979   2.80670549  -0.12289456 
C    2.58833096   3.80255607   0.56802039 
H    2.02317273   4.61456878   1.02669230 
H    2.97987249   4.16547790  -0.37946755 
H    3.42281281   3.53342655   1.20752299 
N   -1.31749746  -0.52022756  -1.16689423 
C   -1.26671426  -1.33771773  -2.37922859 
H   -0.90879005  -0.74651811  -3.20234898 
H   -2.28557195  -1.65463493  -2.62164421 
H   -0.64238065  -2.20279126  -2.24989959 
C   -2.18605481   0.63799823  -1.44545111 
H   -2.26417080   1.31472041  -0.61787591 
H   -3.18634109   0.28133118  -1.70488583 
H   -1.77281649   1.16351817  -2.29967398 
C   -1.46915190  -0.95818180   1.33575013 
C   -0.65802548  -1.87829005   2.08856563 
C   -0.49428867  -1.75178633   3.44625044 
C   -1.20208238  -0.79797647   4.12442386 
C   -2.07589258   0.05979933   3.43470034 
C   -2.04960032   0.04283566   2.10017398 
H   -1.09443995  -0.67840306   5.19961142 
H   -2.82142763   0.55719947   4.00335774 
H   -0.16269353  -2.70081804   1.58650175 
H    0.07466396  -2.48693735   4.00008675 
H   -2.62690102   2.62438373   1.95475412 
C   -1.88119739  -1.35808163  -0.03715344 
H   -2.97585605  -1.31259326  -0.07427224 
H   -1.64732433  -2.40438377  -0.22259750 
O    1.86223912  -0.87030434  -1.12517776 
C    2.25334158  -0.63060332  -2.36870204 
O    1.67453495   0.03693059  -3.19094988 
C    3.58425669  -1.33849213  -2.72676982 
H    3.47969842  -2.41695146  -2.68631957 
H    4.37596505  -1.04641943  -2.06390804 
H    3.89259603  -1.06902059  -3.74832408 
*
