! EnGrad PBEh-3c
%output 
xyzfile=True 
end 
%scf 
maxiter 250 
end
%output
Print[P_Hirshfeld] = 1
end
% maxcore
4000
*xyz 0 1
Pd   0.68460189   0.49812446  -0.35546158 
O    2.02266923   1.32546335   0.39763068 
C    1.57119442   2.62465784   0.33035901 
O    0.45045058   2.80318971  -0.13720077 
C    2.59469897   3.75230633   0.57898895 
H    2.06094333   4.59584779   1.01784946 
H    3.01137074   4.12714956  -0.37750763 
H    3.43998033   3.47980998   1.21999692 
N   -1.37590632  -0.54578607  -1.19894646 
C   -1.25757739  -1.43907233  -2.37246595 
H   -0.83067771  -0.82914231  -3.16225585 
H   -2.27970165  -1.74931957  -2.55491560 
H   -0.59972619  -2.29382679  -2.13840539 
C   -2.20925193   0.63984002  -1.48617869 
H   -2.27069854   1.32590885  -0.60872304 
H   -3.17356211   0.21272641  -1.76906384 
H   -1.73509589   1.09176320  -2.36086485 
C   -1.46580793  -0.90175434   1.36828893 
C   -0.79054289  -1.93262858   2.10078113 
C   -0.49959939  -1.75312323   3.44583625 
C   -1.24584562  -0.83013904   4.15780552 
C   -1.95848648   0.17257372   3.52385548 
C   -1.99943318   0.09156656   2.16784702 
H   -1.10935962  -0.67321476   5.20096481 
H   -2.62814676   0.86968112   3.99639561 
H   -0.33003517  -2.77385577   1.56940688 
H   -0.02395106  -2.54222496   4.01773863 
H   -2.50288958   2.44539688   1.80024054 
C   -1.92521427  -1.30818680  -0.02973328 
H   -3.01001482  -1.20672548  -0.09593759 
H   -1.70612080  -2.37978589  -0.19432159 
O    1.92947911  -0.93420533  -1.16393018 
C    2.21674388  -0.58667410  -2.41342574 
O    1.58607578   0.06517544  -3.23566522 
C    3.59642499  -1.23825235  -2.73277369 
H    3.52305354  -2.33744939  -2.74030593 
H    4.40388775  -0.96369331  -2.02825229 
H    3.84639781  -0.91903188  -3.73483369 
*
