! EnGrad PBEh-3c
%output 
xyzfile=True 
end 
%scf 
maxiter 250 
end
%output
Print[P_Hirshfeld] = 1
end
% maxcore
4000
*xyz 0 1
Pd   0.60327139   0.47901940  -0.39297645 
O    2.06044689   1.37015397   0.44601622 
C    1.60535342   2.64186554   0.31186595 
O    0.49176504   2.80554078  -0.12854596 
C    2.59088720   3.78437667   0.57197840 
H    2.03685615   4.60773484   1.02342575 
H    2.99143693   4.15172587  -0.37887077 
H    3.42917711   3.51394816   1.21211053 
N   -1.33975042  -0.52966871  -1.17982666 
C   -1.26327759  -1.37497377  -2.37743379 
H   -0.88026336  -0.77636158  -3.18753278 
H   -2.28334857  -1.68883625  -2.59693976 
H   -0.62666244  -2.23605356  -2.20929358 
C   -2.19487074   0.63933883  -1.46022593 
H   -2.26654079   1.31909483  -0.61397218 
H   -3.18140391   0.25605619  -1.72820765 
H   -1.75895940   1.13722606  -2.32197327 
C   -1.46772733  -0.93668765   1.34769071 
C   -0.70677396  -1.89854541   2.09314071 
C   -0.49537174  -1.75174894   3.44600191 
C   -1.21860695  -0.81030534   4.13639167 
C   -2.03316457   0.10139197   3.46777085 
C   -2.03136761   0.05983707   2.12548919 
H   -1.10000990  -0.67639989   5.19988482 
H   -2.75097898   0.67098253   4.00043513 
H   -0.22338045  -2.72745226   1.58006939 
H    0.03875940  -2.50699883   4.00646953 
H   -2.58181674   2.55899714   1.89840964 
C   -1.89729363  -1.34017978  -0.03396922 
H   -2.98813259  -1.27393782  -0.08246399 
H   -1.66849799  -2.39553345  -0.21244950 
O    1.88723994  -0.89474068  -1.13872002 
C    2.23859206  -0.61308134  -2.38653987 
O    1.64287021   0.04679029  -3.20681569 
C    3.58907039  -1.30233332  -2.72856363 
H    3.49547472  -2.38822464  -2.70590209 
H    4.38632505  -1.01641401  -2.05075133 
H    3.87542586  -1.01443376  -3.74328051 
*
