! EnGrad PBEh-3c
%output 
xyzfile=True 
end 
%scf 
maxiter 250 
end
%output
Print[P_Hirshfeld] = 1
end
% maxcore
4000
*xyz -1 1
Pt  -0.79875851  -0.77118776   0.45232791 
Cl  -0.14801163  -0.34465752   2.66494835 
Cl  -2.63779463  -2.07975993   1.13552861 
Cl  -1.36524985  -1.17549021  -1.78559434 
C    0.86586683   0.98375431  -0.52703223 
H    1.41417825   1.66753333   0.11646116 
H    1.24331284  -0.52447938   0.22684902 
H    1.45975051   0.74455220  -1.41008535 
H   -0.03329381   1.49973127  -0.87339049 
*
