! EnGrad PBEh-3c
%output 
xyzfile=True 
end 
%scf 
maxiter 250 
end
%output
Print[P_Hirshfeld] = 1
end
% maxcore
4000
*xyz -1 1
Pt  -0.70854642  -0.78617102   0.44355282 
Cl  -0.15814660  -0.34345387   2.65274401 
Cl  -2.56571682  -2.02443963   1.11451050 
Cl  -1.35318625  -1.16520801  -1.76645183 
C    0.88878428   0.87992849  -0.47818169 
H    1.41304407   1.62406744   0.13814748 
H    1.04333375  -0.32361228   0.13196909 
H    1.46291474   0.72127165  -1.40252743 
H   -0.02420680   1.41823962  -0.83286479 
*
