! EnGrad PBEh-3c
%output 
xyzfile=True 
end 
%scf 
maxiter 250 
end
%output
Print[P_Hirshfeld] = 1
end
% maxcore
4000
%pal nprocs 4
end
*xyz 0 1
Pd   1.55143245   0.98565823  -0.01915698 
O   -0.18261454   2.01177488  -0.20837444 
O   -0.14368854  -0.12166035   0.03989714 
O    3.23546397   2.10280677  -0.06755017 
O    3.29640823  -0.02883501   0.19077043 
C   -0.82563936   0.92541230  -0.14712699 
C   -2.30305719   0.87665576  -0.33510917 
H   -2.76047250   1.83067260  -0.08445378 
H   -2.74424026   0.08143969   0.26173068 
H   -2.51636412   0.66223935  -1.38410709 
C    3.93109264   1.05703223   0.07473922 
C    5.42069219   1.09776232   0.06411295 
H    5.83336845   0.31260026   0.69349721 
H    5.78527114   2.06889642   0.39034659 
H    5.77385270   0.92889028  -0.95489702 
C    1.82289331   1.34941400  -3.63110466 
C    0.57012771   0.75467126  -3.56986713 
C    2.95651601   0.61072709  -3.32380724 
C    0.45244790  -0.57623479  -3.19520315 
C    1.58591409  -1.31253282  -2.88072914 
C    2.83823352  -0.71981589  -2.94674756 
H   -0.52289527  -1.04230425  -3.14287659 
H    1.49175191  -2.34510956  -2.57207677 
H    1.91534985   2.38967063  -3.91347031 
H   -0.31261288   1.33145746  -3.81357300 
H    3.93246648   1.07642527  -3.37595950 
H    3.71990211  -1.29422413  -2.69555353 
*
