39
Coordinates from ORCA-job reaction-4-ieip_optts_Compound_2_IRC_F E -1288.336235215977
  Ir      0.616280     -0.704448      0.402890
  C      -0.054597     -2.761702      0.245044
  C       0.049424     -2.338278      1.623472
  C       2.147782     -2.216856      0.682921
  C       1.221011     -2.661966     -0.338158
  C       1.435090     -2.061498      1.884349
  N      -0.980002      0.316020     -0.525272
  C      -2.227114      0.716218      0.144167
  C      -3.014743      1.773992     -0.614781
  H      -3.833897      2.122149      0.013807
  H      -3.469030      1.386353     -1.529622
  H      -2.404761      2.645510     -0.860729
  C      -3.073494     -0.524868      0.414413
  H      -1.905169      1.133615      1.100759
  H      -3.972941     -0.238834      0.958274
  H      -3.387250     -1.003161     -0.515894
  H      -2.546403     -1.258584      1.025029
  C      -0.760619      0.511571     -1.764891
  C       0.569995      0.143453     -2.217390
  H      -1.497756      0.940846     -2.437675
  C       1.716321      0.443530     -1.483870
  C       2.871919     -0.115158     -2.107450
  S       0.903117     -0.776919     -3.613781
  C       2.584469     -0.793436     -3.248004
  H       1.719514      1.317295     -0.788096
  H       3.879188      0.032991     -1.744420
  H       3.271673     -1.287150     -3.918283
  H      -0.962103     -3.069996     -0.258749
  H      -0.742538     -2.337850      2.358237
  H       1.838138     -1.699266      2.820718
  O       0.995625      2.821079      0.226026
  O       0.631211      0.808342      1.764071
  C       0.792020      2.183137      1.443055
  C       0.721400      2.943396      2.769715
  H      -0.256200      2.666046      3.395871
  H       0.730386      4.058489      2.499351
  H       1.658642      2.655951      3.441053
  H       3.207992     -2.048245      0.548017
  H       1.472031     -2.886748     -1.364678
39
Coordinates from ORCA-job reaction-4-ieip_optts_Compound_2_IRC_F E -1288.367408683372
  Ir      0.615470     -0.705924      0.406257
  C      -0.054274     -2.761379      0.245036
  C       0.049765     -2.337978      1.622938
  C       2.147526     -2.216839      0.682461
  C       1.221175     -2.661900     -0.338138
  C       1.434670     -2.061450      1.883945
  N      -0.979986      0.315505     -0.525586
  C      -2.227175      0.716305      0.144055
  C      -3.014435      1.774072     -0.614829
  H      -3.833758      2.122040      0.013789
  H      -3.468930      1.386464     -1.529440
  H      -2.404805      2.645191     -0.860595
  C      -3.073251     -0.524855      0.414389
  H      -1.905324      1.133563      1.100509
  H      -3.972843     -0.238854      0.958256
  H      -3.387116     -1.003004     -0.515695
  H      -2.546573     -1.258313      1.024843
  C      -0.760723      0.511676     -1.764427
  C       0.569726      0.143928     -2.217184
  H      -1.497598      0.940871     -2.437615
  C       1.715672      0.446174     -1.482502
  C       2.872360     -0.114945     -2.107293
  S       0.903376     -0.776704     -3.613179
  C       2.584333     -0.793299     -3.247727
  H       1.720072      1.315653     -0.790628
  H       3.878985      0.032966     -1.744450
  H       3.271687     -1.287120     -3.918222
  H      -0.961665     -3.069881     -0.258434
  H      -0.742522     -2.337780      2.358191
  H       1.838023     -1.699440      2.820460
  O       0.986598      2.788411      0.276150
  O       0.635721      0.836510      1.745947
  C       0.795196      2.184527      1.418266
  C       0.721212      2.947331      2.774438
  H      -0.241331      2.670199      3.385861
  H       0.730581      4.047485      2.505143
  H       1.645121      2.660845      3.431288
  H       3.207460     -2.048310      0.548025
  H       1.472077     -2.886859     -1.364561
39
Coordinates from ORCA-job reaction-4-ieip_optts_Compound_2_IRC_F E -1288.387393942925
  Ir      0.614546     -0.706118      0.410142
  C      -0.053887     -2.761078      0.244953
  C       0.049820     -2.337708      1.622790
  C       2.147108     -2.216782      0.681996
  C       1.221305     -2.661854     -0.337931
  C       1.434401     -2.061247      1.883860
  N      -0.980193      0.314807     -0.525515
  C      -2.227249      0.716362      0.143868
  C      -3.014181      1.774040     -0.614828
  H      -3.833537      2.121905      0.013752
  H      -3.468801      1.386618     -1.529241
  H      -2.404809      2.644910     -0.860467
  C      -3.073050     -0.524725      0.414338
  H      -1.905493      1.133491      1.100225
  H      -3.972678     -0.238883      0.958217
  H      -3.386951     -1.002824     -0.515486
  H      -2.546724     -1.258023      1.024665
  C      -0.760908      0.511804     -1.764213
  C       0.569635      0.144716     -2.216664
  H      -1.497407      0.940923     -2.437512
  C       1.715231      0.448451     -1.482262
  C       2.872278     -0.114299     -2.106838
  S       0.903621     -0.776415     -3.612286
  C       2.584273     -0.793072     -3.247236
  H       1.721015      1.313729     -0.793598
  H       3.878934      0.032959     -1.744433
  H       3.271648     -1.287053     -3.918063
  H      -0.961119     -3.069716     -0.258054
  H      -0.742364     -2.337721      2.358014
  H       1.837844     -1.699733      2.820087
  O       0.977485      2.753501      0.324556
  O       0.640989      0.864335      1.722088
  C       0.797046      2.187216      1.405386
  C       0.721360      2.949271      2.775571
  H      -0.224013      2.675219      3.374045
  H       0.730800      4.036101      2.512529
  H       1.629381      2.666838      3.419929
  H       3.206843     -2.048353      0.548003
  H       1.472120     -2.886926     -1.364451
39
Coordinates from ORCA-job reaction-4-ieip_optts_Compound_2_IRC_F E -1288.398792753324
  Ir      0.613306     -0.704105      0.414667
  C      -0.053311     -2.760639      0.245012
  C       0.049799     -2.337347      1.623022
  C       2.146358     -2.216492      0.681672
  C       1.221312     -2.661754     -0.337338
  C       1.434115     -2.060813      1.884121
  N      -0.980781      0.313817     -0.525365
  C      -2.227373      0.716355      0.143588
  C      -3.013921      1.773872     -0.614773
  H      -3.833158      2.121705      0.013702
  H      -3.468611      1.386861     -1.529002
  H      -2.404753      2.644609     -0.860315
  C      -3.072881     -0.524412      0.414256
  H      -1.905731      1.133367      1.099825
  H      -3.972399     -0.238917      0.958156
  H      -3.386707     -1.002577     -0.515241
  H      -2.546866     -1.257625      1.024461
  C      -0.761191      0.511863     -1.763719
  C       0.569564      0.146105     -2.215834
  H      -1.497200      0.941070     -2.437384
  C       1.715008      0.450718     -1.483707
  C       2.871848     -0.112985     -2.106057
  S       0.903903     -0.775980     -3.610741
  C       2.584257     -0.792646     -3.246280
  H       1.722868      1.311124     -0.797706
  H       3.878944      0.033011     -1.744337
  H       3.271496     -1.286882     -3.917640
  H      -0.960319     -3.069429     -0.257539
  H      -0.742135     -2.337699      2.357767
  H       1.837634     -1.700245      2.819668
  O       0.971010      2.723983      0.353162
  O       0.647677      0.891727      1.688397
  C       0.793504      2.180090      1.429752
  C       0.721874      2.949254      2.772248
  H      -0.200751      2.682163      3.357794
  H       0.731144      4.023021      2.523555
  H       1.608369      2.675330      3.404652
  H       3.205935     -2.048365      0.547904
  H       1.472136     -2.886846     -1.364261
39
Coordinates from ORCA-job reaction-4-ieip_optts_Compound_2_IRC_F E -1288.402844352012
  Ir      0.611964     -0.699952      0.413264
  C      -0.052959     -2.759166      0.246521
  C       0.049814     -2.336652      1.623831
  C       2.145457     -2.215249      0.682461
  C       1.221002     -2.660185     -0.335949
  C       1.433533     -2.059913      1.884619
  N      -0.982244      0.312291     -0.525285
  C      -2.227577      0.716078      0.143246
  C      -3.013512      1.773719     -0.614737
  H      -3.832556      2.121365      0.013742
  H      -3.468366      1.387173     -1.528790
  H      -2.404407      2.644203     -0.860010
  C      -3.072845     -0.523850      0.414174
  H      -1.906190      1.133323      1.099162
  H      -3.972065     -0.238903      0.958128
  H      -3.386353     -1.002225     -0.515030
  H      -2.546952     -1.257066      1.024254
  C      -0.761443      0.511976     -1.762681
  C       0.569037      0.148139     -2.215384
  H      -1.496917      0.941408     -2.436982
  C       1.715495      0.452155     -1.487830
  C       2.871768     -0.111291     -2.105762
  S       0.904028     -0.775540     -3.608430
  C       2.584389     -0.792047     -3.244715
  H       1.725747      1.310593     -0.801221
  H       3.878831      0.033436     -1.743941
  H       3.270990     -1.286393     -3.916486
  H      -0.959083     -3.068747     -0.256828
  H      -0.742162     -2.337919      2.357764
  H       1.837686     -1.701122      2.819860
  O       0.965764      2.700747      0.372073
  O       0.652478      0.893352      1.662629
  C       0.789709      2.178823      1.459716
  C       0.722266      2.947521      2.764010
  H      -0.175846      2.690110      3.339928
  H       0.731934      4.012111      2.537695
  H       1.586360      2.685926      3.388717
  H       3.204478     -2.048271      0.547592
  H       1.471909     -2.885985     -1.363530
39
Coordinates from ORCA-job reaction-4-ieip_optts_Compound_2_IRC_F E -1288.403235862851
  Ir      0.611537     -0.700892      0.409974
  C      -0.053045     -2.758033      0.247024
  C       0.049781     -2.335526      1.624267
  C       2.145033     -2.214176      0.682933
  C       1.220746     -2.658922     -0.335611
  C       1.433215     -2.058994      1.884882
  N      -0.983086      0.311680     -0.525588
  C      -2.227832      0.715892      0.143130
  C      -3.013327      1.773636     -0.614751
  H      -3.832225      2.121178      0.013858
  H      -3.468249      1.387346     -1.528795
  H      -2.404011      2.644032     -0.859814
  C      -3.072965     -0.523725      0.414208
  H      -1.906398      1.133341      1.098834
  H      -3.972062     -0.238809      0.958203
  H      -3.386198     -1.002043     -0.515020
  H      -2.546932     -1.256736      1.024179
  C      -0.761913      0.512383     -1.762562
  C       0.568835      0.149127     -2.215585
  H      -1.496863      0.941764     -2.436663
  C       1.715913      0.454085     -1.489077
  C       2.872195     -0.110509     -2.106167
  S       0.903921     -0.775786     -3.607612
  C       2.584242     -0.791962     -3.244289
  H       1.727538      1.311117     -0.802699
  H       3.878887      0.033978     -1.743504
  H       3.270720     -1.286199     -3.915727
  H      -0.958442     -3.068285     -0.256281
  H      -0.742374     -2.337973      2.358050
  H       1.837800     -1.701484      2.820369
  O       0.964233      2.697743      0.375123
  O       0.653304      0.886996      1.663591
  C       0.788822      2.172280      1.462077
  C       0.722637      2.947432      2.759238
  H      -0.171708      2.691682      3.335878
  H       0.732502      4.012380      2.542610
  H       1.582797      2.689216      3.385732
  H       3.203869     -2.048060      0.547478
  H       1.471639     -2.885207     -1.362601
39
Coordinates from ORCA-job reaction-4-ieip_optts_Compound_2_IRC_F E -1288.403386910824
  Ir      0.611353     -0.701375      0.408721
  C      -0.053119     -2.757556      0.247237
  C       0.049697     -2.335013      1.624425
  C       2.144883     -2.213741      0.683086
  C       1.220668     -2.658420     -0.335475
  C       1.433076     -2.058564      1.884961
  N      -0.983447      0.311368     -0.525761
  C      -2.227958      0.715797      0.143067
  C      -3.013246      1.773614     -0.614765
  H      -3.832072      2.121099      0.013923
  H      -3.468197      1.387433     -1.528816
  H      -2.403802      2.643944     -0.859708
  C      -3.073051     -0.523676      0.414229
  H      -1.906482      1.133350      1.098691
  H      -3.972092     -0.238760      0.958252
  H      -3.386144     -1.001967     -0.515027
  H      -2.546915     -1.256593      1.024163
  C      -0.762081      0.512607     -1.762582
  C       0.568772      0.149600     -2.215635
  H      -1.496928      0.942034     -2.436576
  C       1.716141      0.454947     -1.489661
  C       2.872371     -0.110082     -2.106361
  S       0.903831     -0.775948     -3.607240
  C       2.584174     -0.791921     -3.244100
  H       1.728421      1.311623     -0.803317
  H       3.878918      0.034278     -1.743313
  H       3.270624     -1.286171     -3.915395
  H      -0.958244     -3.068093     -0.256035
  H      -0.742477     -2.337925      2.358206
  H       1.837836     -1.701579      2.820612
  O       0.963255      2.695250      0.377205
  O       0.653718      0.884300      1.664338
  C       0.788737      2.170200      1.461598
  C       0.722753      2.947290      2.757590
  H      -0.170417      2.692212      3.334324
  H       0.732767      4.012625      2.544342
  H       1.581715      2.690530      3.384649
  H       3.203640     -2.047908      0.547448
  H       1.471544     -2.884863     -1.362249
39
Coordinates from ORCA-job reaction-4-ieip_optts_Compound_2_IRC_F E -1288.403645138841
  Ir      0.610864     -0.702604      0.405808
  C      -0.053325     -2.756358      0.247742
  C       0.049415     -2.333641      1.624816
  C       2.144513     -2.212647      0.683441
  C       1.220461     -2.657210     -0.335124
  C       1.432715     -2.057403      1.885155
  N      -0.984386      0.310517     -0.526307
  C      -2.228300      0.715527      0.142881
  C      -3.013039      1.773560     -0.614809
  H      -3.831653      2.120902      0.014112
  H      -3.468059      1.387691     -1.528900
  H      -2.403200      2.643697     -0.859401
  C      -3.073320     -0.523559      0.414296
  H      -1.906687      1.133361      1.098298
  H      -3.972220     -0.238624      0.958401
  H      -3.386027     -1.001774     -0.515053
  H      -2.546866     -1.256210      1.024140
  C      -0.762531      0.513268     -1.762684
  C       0.568686      0.150927     -2.215709
  H      -1.497191      0.942910     -2.436402
  C       1.716800      0.457323     -1.491265
  C       2.872787     -0.108825     -2.106911
  S       0.903564     -0.776450     -3.606204
  C       2.583996     -0.791809     -3.243604
  H       1.730910      1.313251     -0.805001
  H       3.879029      0.035178     -1.742821
  H       3.270390     -1.286186     -3.914505
  H      -0.957850     -3.067605     -0.255382
  H      -0.742759     -2.337677      2.358655
  H       1.837889     -1.701731      2.821240
  O       0.960767      2.688684      0.380260
  O       0.654927      0.877448      1.666558
  C       0.788285      2.163984      1.462245
  C       0.723060      2.946782      2.753547
  H      -0.167656      2.693392      3.330462
  H       0.733472      4.013340      2.548359
  H       1.579440      2.693819      3.382049
  H       3.203091     -2.047411      0.547398
  H       1.471331     -2.883960     -1.361411
39
Coordinates from ORCA-job reaction-4-ieip_optts_Compound_2_IRC_F E -1288.403856136978
  Ir      0.610277     -0.703826      0.403604
  C      -0.053637     -2.755166      0.248183
  C       0.048896     -2.331983      1.625194
  C       2.144168     -2.211535      0.683724
  C       1.220206     -2.656168     -0.334751
  C       1.432298     -2.055977      1.885333
  N      -0.985461      0.309432     -0.527236
  C      -2.228728      0.715131      0.142567
  C      -3.012798      1.773520     -0.614883
  H      -3.831111      2.120715      0.014399
  H      -3.467894      1.388106     -1.529099
  H      -2.402294      2.643342     -0.858931
  C      -3.073794     -0.523463      0.414414
  H      -1.906866      1.133320      1.097761
  H      -3.972545     -0.238444      0.958653
  H      -3.385997     -1.001580     -0.515103
  H      -2.546814     -1.255740      1.024184
  C      -0.763061      0.514317     -1.762982
  C       0.568824      0.152780     -2.215637
  H      -1.497779      0.944547     -2.436369
  C       1.717808      0.460588     -1.493308
  C       2.873192     -0.106906     -2.107735
  S       0.903151     -0.777303     -3.604746
  C       2.583815     -0.791677     -3.243030
  H       1.734383      1.316293     -0.807153
  H       3.879225      0.036659     -1.742317
  H       3.270168     -1.286539     -3.913383
  H      -0.957841     -3.067082     -0.254589
  H      -0.743131     -2.336927      2.359307
  H       1.837798     -1.701548      2.821919
  O       0.957316      2.678603      0.380131
  O       0.656764      0.870061      1.670494
  C       0.787753      2.156269      1.464287
  C       0.723417      2.945932      2.750158
  H      -0.166521      2.694064      3.326714
  H       0.734310      4.014115      2.551060
  H       1.578679      2.697114      3.379873
  H       3.202613     -2.046464      0.547437
  H       1.471208     -2.882898     -1.360741
39
Coordinates from ORCA-job reaction-4-ieip_optts_Compound_2_IRC_F E -1288.404023565076
  Ir      0.609868     -0.703853      0.403713
  C      -0.054104     -2.754740      0.248386
  C       0.048519     -2.330868      1.625384
  C       2.143889     -2.210902      0.683988
  C       1.219965     -2.655926     -0.334684
  C       1.431971     -2.055088      1.885447
  N      -0.986219      0.308786     -0.527957
  C      -2.229052      0.714716      0.142118
  C      -3.012614      1.773509     -0.614948
  H      -3.830635      2.120700      0.014670
  H      -3.467770      1.388680     -1.529381
  H      -2.401317      2.642967     -0.858392
  C      -3.074328     -0.523441      0.414540
  H      -1.906856      1.133117      1.097126
  H      -3.973034     -0.238321      0.958911
  H      -3.386248     -1.001542     -0.515068
  H      -2.546911     -1.255362      1.024306
  C      -0.763367      0.515584     -1.763440
  C       0.569088      0.154659     -2.215628
  H      -1.498188      0.946654     -2.436356
  C       1.718923      0.464451     -1.494659
  C       2.873915     -0.104946     -2.108770
  S       0.902876     -0.778262     -3.603041
  C       2.583778     -0.791655     -3.242678
  H       1.737533      1.319853     -0.809312
  H       3.879289      0.038579     -1.742363
  H       3.269984     -1.287414     -3.912318
  H      -0.958425     -3.066713     -0.253945
  H      -0.743441     -2.335546      2.359855
  H       1.837418     -1.700763      2.822153
  O       0.953091      2.666940      0.378012
  O       0.658759      0.865025      1.676024
  C       0.787555      2.150394      1.465059
  C       0.723831      2.945402      2.749076
  H      -0.167223      2.693901      3.324530
  H       0.734782      4.013091      2.549870
  H       1.579649      2.698868      3.379106
  H       3.202328     -2.045171      0.547592
  H       1.471232     -2.882107     -1.360585
39
Coordinates from ORCA-job reaction-4-ieip_optts_Compound_2_IRC_F E -1288.404166058748
  Ir      0.609575     -0.704064      0.404489
  C      -0.054463     -2.754446      0.248566
  C       0.048091     -2.330058      1.625499
  C       2.143490     -2.210305      0.684030
  C       1.219633     -2.655605     -0.334528
  C       1.431701     -2.054570      1.885581
  N      -0.986527      0.308666     -0.528311
  C      -2.229401      0.714396      0.141694
  C      -3.012463      1.773594     -0.615005
  H      -3.830202      2.120831      0.014874
  H      -3.467681      1.389423     -1.529680
  H      -2.400358      2.642606     -0.857819
  C      -3.074848     -0.523423      0.414591
  H      -1.906777      1.132819      1.096493
  H      -3.973481     -0.238229      0.959084
  H      -3.386749     -1.001668     -0.514908
  H      -2.547187     -1.255096      1.024475
  C      -0.763173      0.516928     -1.763566
  C       0.569731      0.156894     -2.215312
  H      -1.498130      0.948896     -2.436156
  C       1.720222      0.467766     -1.496807
  C       2.874304     -0.102664     -2.109720
  S       0.902672     -0.779259     -3.601243
  C       2.583847     -0.791680     -3.242181
  H       1.740159      1.323636     -0.811219
  H       3.879757      0.040936     -1.742951
  H       3.269770     -1.288729     -3.911251
  H      -0.959061     -3.066346     -0.253335
  H      -0.743630     -2.333891      2.360145
  H       1.836950     -1.699675      2.822255
  O       0.947988      2.656262      0.376284
  O       0.660779      0.859928      1.682070
  C       0.786950      2.144578      1.466845
  C       0.724423      2.943374      2.747054
  H      -0.167056      2.693893      3.322547
  H       0.734995      4.011883      2.546723
  H       1.580059      2.700157      3.378507
  H       3.201778     -2.043786      0.547774
  H       1.471168     -2.881456     -1.360441
39
Coordinates from ORCA-job reaction-4-ieip_optts_Compound_2_IRC_F E -1288.404211593560
  Ir      0.609435     -0.704068      0.404896
  C      -0.054587     -2.754401      0.248579
  C       0.048008     -2.329868      1.625580
  C       2.143343     -2.210143      0.684125
  C       1.219435     -2.655549     -0.334518
  C       1.431622     -2.054463      1.885686
  N      -0.986547      0.308668     -0.528318
  C      -2.229444      0.714304      0.141555
  C      -3.012405      1.773642     -0.615017
  H      -3.830076      2.120938      0.014934
  H      -3.467655      1.389737     -1.529794
  H      -2.400016      2.642532     -0.857615
  C      -3.074999     -0.523437      0.414596
  H      -1.906795      1.132727      1.096346
  H      -3.973627     -0.238177      0.959124
  H      -3.386991     -1.001761     -0.514841
  H      -2.547338     -1.255028      1.024535
  C      -0.763072      0.517561     -1.763522
  C       0.570034      0.157577     -2.215328
  H      -1.497883      0.949688     -2.435944
  C       1.720726      0.469252     -1.497300
  C       2.874667     -0.101881     -2.110215
  S       0.902624     -0.779613     -3.600580
  C       2.583894     -0.791766     -3.242035
  H       1.740929      1.324772     -0.811943
  H       3.880008      0.041945     -1.743364
  H       3.269635     -1.289303     -3.910793
  H      -0.959308     -3.066226     -0.253159
  H      -0.743762     -2.333264      2.360233
  H       1.836760     -1.699262      2.822226
  O       0.945838      2.652793      0.375490
  O       0.661537      0.857983      1.684103
  C       0.786589      2.142191      1.467620
  C       0.724633      2.943342      2.746714
  H      -0.166957      2.693859      3.321968
  H       0.735051      4.010887      2.545038
  H       1.580193      2.700434      3.378272
  H       3.201596     -2.043254      0.547793
  H       1.471109     -2.881259     -1.360437
39
Coordinates from ORCA-job reaction-4-ieip_optts_Compound_2_IRC_F E -1288.404231079069
  Ir      0.609385     -0.704124      0.405030
  C      -0.054639     -2.754384      0.248604
  C       0.047954     -2.329805      1.625599
  C       2.143293     -2.210090      0.684133
  C       1.219377     -2.655522     -0.334503
  C       1.431589     -2.054436      1.885716
  N      -0.986527      0.308691     -0.528396
  C      -2.229476      0.714272      0.141517
  C      -3.012378      1.773668     -0.615020
  H      -3.830024      2.120981      0.014953
  H      -3.467642      1.389861     -1.529835
  H      -2.399890      2.642507     -0.857536
  C      -3.075061     -0.523437      0.414594
  H      -1.906812      1.132693      1.096297
  H      -3.973675     -0.238154      0.959135
  H      -3.387084     -1.001798     -0.514812
  H      -2.547398     -1.255009      1.024559
  C      -0.762975      0.517762     -1.763403
  C       0.570140      0.157859     -2.215299
  H      -1.497801      0.950016     -2.435877
  C       1.720940      0.469753     -1.497552
  C       2.874795     -0.101564     -2.110397
  S       0.902609     -0.779756     -3.600331
  C       2.583904     -0.791785     -3.241955
  H       1.741208      1.325237     -0.812181
  H       3.880121      0.042348     -1.743552
  H       3.269595     -1.289549     -3.910630
  H      -0.959404     -3.066183     -0.253096
  H      -0.743809     -2.333028      2.360259
  H       1.836693     -1.699100      2.822228
  O       0.944902      2.651281      0.375648
  O       0.661836      0.857279      1.684914
  C       0.786494      2.141542      1.467497
  C       0.724707      2.943105      2.746506
  H      -0.166930      2.693871      3.321791
  H       0.735075      4.010616      2.544330
  H       1.580263      2.700547      3.378208
  H       3.201511     -2.043051      0.547799
  H       1.471080     -2.881186     -1.360435
39
Coordinates from ORCA-job reaction-4-ieip_optts_Compound_2_IRC_F E -1288.404260864420
  Ir      0.609301     -0.704213      0.405275
  C      -0.054736     -2.754365      0.248639
  C       0.047868     -2.329701      1.625637
  C       2.143199     -2.210004      0.684157
  C       1.219277     -2.655485     -0.334486
  C       1.431532     -2.054395      1.885768
  N      -0.986504      0.308722     -0.528451
  C      -2.229524      0.714221      0.141449
  C      -3.012331      1.773715     -0.615025
  H      -3.829934      2.121059      0.014985
  H      -3.467617      1.390078     -1.529903
  H      -2.399672      2.642467     -0.857399
  C      -3.075164     -0.523438      0.414590
  H      -1.906843      1.132635      1.096218
  H      -3.973756     -0.238111      0.959151
  H      -3.387246     -1.001861     -0.514764
  H      -2.547505     -1.254977      1.024601
  C      -0.762815      0.518131     -1.763271
  C       0.570343      0.158340     -2.215240
  H      -1.497632      0.950581     -2.435739
  C       1.721310      0.470618     -1.497989
  C       2.875016     -0.101005     -2.110707
  S       0.902583     -0.780003     -3.599895
  C       2.583933     -0.791831     -3.241834
  H       1.741687      1.326025     -0.812592
  H       3.880330      0.043055     -1.743894
  H       3.269518     -1.289981     -3.910339
  H      -0.959566     -3.066110     -0.252988
  H      -0.743895     -2.332623      2.360303
  H       1.836578     -1.698825      2.822228
  O       0.943296      2.648837      0.375623
  O       0.662356      0.856055      1.686283
  C       0.786267      2.140272      1.467614
  C       0.724833      2.942737      2.746151
  H      -0.166874      2.693900      3.321490
  H       0.735117      4.010109      2.543092
  H       1.580375      2.700737      3.378084
  H       3.201368     -2.042702      0.547805
  H       1.471026     -2.881063     -1.360429
