! EnGrad PBEh-3c
%output 
xyzfile=True 
end 
%scf 
maxiter 250 
end
%output
Print[P_Hirshfeld] = 1
end
% maxcore
4000
*xyz 1 1
Sc   1.58578861  -1.16498859  -1.59546468 
C    0.42294752  -0.61099079   0.21894524 
N   -0.47910378  -1.34794563   0.91606265 
C   -0.80720683  -0.76045153   2.11872064 
C   -0.14894499   0.40774188   2.16823861 
N    0.56438612   0.50906831   0.98971666 
C    1.44072150   1.63681391   0.61319380 
H    1.51418459   2.32076688   1.45503215 
H    1.01588353   2.15184254  -0.23355750 
H    2.44412802   1.26864671   0.39392142 
C   -0.98279569  -2.66821518   0.55187059 
H   -0.58420840  -2.95605261  -0.41845753 
H   -2.06655885  -2.64435355   0.48202698 
H   -0.68403685  -3.41288177   1.28844765 
H   -1.46330276  -1.20758058   2.84342111 
H   -0.13735910   1.18435011   2.90720385 
C   -0.34087973   1.62377815  -2.89047112 
H   -1.00612687   1.67523107  -3.71744974 
H    0.35697253   2.51997535  -2.92822727 
H   -0.82154159   1.60955786  -1.93822332 
H    0.17895237  -0.13151135  -3.22753572 
*
