! EnGrad PBEh-3c
%output 
xyzfile=True 
end 
%scf 
maxiter 250 
end
%output
Print[P_Hirshfeld] = 1
end
% maxcore
4000
*xyz 1 1
Sc   1.52798591  -1.10922872  -1.65677529 
C    0.41498337  -0.59900965   0.24469825 
N   -0.47455447  -1.35187081   0.92213189 
C   -0.80339443  -0.76505870   2.11613994 
C   -0.13992080   0.41330534   2.16101702 
N    0.57449077   0.50953610   0.99200757 
C    1.43170730   1.62573573   0.62568282 
H    1.49699412   2.32531121   1.45679618 
H    1.02098199   2.15196705  -0.24583456 
H    2.44449728   1.27100159   0.40834222 
C   -0.97665150  -2.66209709   0.54959271 
H   -0.58779881  -2.94950716  -0.42356571 
H   -2.06417873  -2.64668912   0.48478840 
H   -0.67524264  -3.41159231   1.28305639 
H   -1.46388705  -1.21421840   2.84507297 
H   -0.13133023   1.18321678   2.91905695 
C   -0.30552405   1.60391445  -2.89062248 
H   -0.99738056   1.65520448  -3.73733769 
H    0.38157050   2.46599965  -2.93172962 
H   -0.82784834   1.60703322  -1.93331506 
H    0.15686555  -0.09913350  -3.19121053 
*
