! EnGrad PBEh-3c
%output 
xyzfile=True 
end 
%scf 
maxiter 250 
end
%output
Print[P_Hirshfeld] = 1
end
% maxcore
4000
*xyz 1 1
Sc   1.38433856  -0.96189498  -1.79997411 
C    0.40454806  -0.59386420   0.23792634 
N   -0.46093411  -1.35681015   0.94448335 
C   -0.79964767  -0.75545768   2.12865953 
C   -0.13968478   0.42208807   2.16653897 
N    0.58585725   0.50252847   1.01282181 
C    1.42291387   1.62234994   0.62597567 
H    1.47078974   2.32972350   1.45452211 
H    1.03662933   2.13716234  -0.24617374 
H    2.43780337   1.27825230   0.43326710 
C   -0.97024891  -2.65790391   0.54697405 
H   -0.59232526  -2.93808032  -0.43261237 
H   -2.05631167  -2.64832034   0.48852595 
H   -0.66156118  -3.40632349   1.27126934 
H   -1.45923892  -1.21926462   2.83981332 
H   -0.12299471   1.17527210   2.92858142 
C   -0.28649998   1.52198534  -2.88362560 
H   -0.94820969   1.60777860  -3.73192414 
H    0.43898213   2.37742614  -2.93709409 
H   -0.83768659   1.60110660  -1.94071512 
H    0.15705632  -0.03122033  -3.10878871 
*
