! EnGrad PBEh-3c
%output 
xyzfile=True 
end 
%scf 
maxiter 250 
end
%output
Print[P_Hirshfeld] = 1
end
% maxcore
4000
*xyz 1 1
Sc   1.22831520  -0.70686408  -1.94867173 
C    0.37989400  -0.59678254   0.22360302 
N   -0.44449736  -1.36342882   0.95192397 
C   -0.79771298  -0.74248664   2.12427738 
C   -0.14570995   0.41967501   2.16436836 
N    0.59817183   0.48438975   1.00115532 
C    1.42138680   1.60640596   0.63214054 
H    1.47251095   2.31703111   1.44567220 
H    1.03165364   2.12504530  -0.24099599 
H    2.43493731   1.27346674   0.42050397 
C   -0.96899088  -2.65376506   0.55204100 
H   -0.58515633  -2.93376018  -0.42825800 
H   -2.05294168  -2.63746981   0.48604346 
H   -0.66537954  -3.40994993   1.26808398 
H   -1.46834395  -1.20948242   2.83550685 
H   -0.12587369   1.18919242   2.91971322 
C   -0.21434840   1.37862539  -2.81903676 
H   -0.89692179   1.50613176  -3.68481741 
H    0.46395657   2.24140099  -2.91983142 
H   -0.84277579   1.56439934  -1.95029813 
H    0.18530390   0.15919452  -3.03844695 
*
