! EnGrad PBEh-3c
%output 
xyzfile=True 
end 
%scf 
maxiter 250 
end
%output
Print[P_Hirshfeld] = 1
end
% maxcore
4000
*xyz 0 1
Lu   0.03649735   0.00278773   0.04275652 
C    0.41081161   0.74825183   2.50855126 
C    1.43269439  -0.18981299   2.19638685 
C    2.27112362   0.38570384   1.22931899 
C    1.77258699   1.66094264   0.90078295 
C    0.62498806   1.89707221   1.69964869 
H    2.24462881   2.36699271   0.23803788 
H    0.06413498   2.80661372   1.73534777 
H   -0.35085657   0.63418112   3.24651264 
H    1.60685619  -1.12808772   2.69766313 
H    3.18175543  -0.04744074   0.84237543 
C    0.86288027  -0.06743884  -2.37039414 
C   -0.39833611  -0.71721377  -2.40078009 
C    1.05165104  -2.00176994  -1.18005032 
C    1.74605062  -0.87571982  -1.63463381 
H    1.12835291   0.83225791  -2.89418552 
C   -0.28404553  -1.92420462  -1.65890279 
H   -1.27056579  -0.37301907  -2.91430747 
H    2.80455737  -0.68732595  -1.50989107 
H    1.48499132  -2.84110394  -0.65575068 
H   -1.04993629  -2.65124247  -1.51836782 
C   -2.20050609  -1.14391682   1.04512092 
H   -2.22079593  -1.09388543   2.14259417 
H   -1.66623222  -2.08687218   0.84601226 
H   -3.25733075  -1.43868653   0.80736524 
C   -1.90616452   1.66525351  -0.72058064 
H   -2.10606540   0.12281136   0.27674922 
H   -1.01501286   2.22242915  -1.07389978 
H   -2.49167081   2.46243517  -0.22594753 
H   -2.47428980   1.49389080  -1.65463783 
*
