! EnGrad PBEh-3c
%output 
xyzfile=True 
end 
%scf 
maxiter 250 
end
%output
Print[P_Hirshfeld] = 1
end
% maxcore
4000
*xyz 0 1
Lu   0.01700839   0.16604562  -0.06126140 
C    0.43226039   0.84440921   2.47579886 
C    1.44500924  -0.12238307   2.21863061 
C    2.34052295   0.41762773   1.28450395 
C    1.89119766   1.71842660   0.95041622 
C    0.74380810   1.99690491   1.72785966 
H    2.38380055   2.41440797   0.29365529 
H    0.14728911   2.89854146   1.69419216 
H   -0.29009572   0.78694944   3.26366492 
H    1.47371098  -1.10972898   2.65113634 
H    3.23496940  -0.05687789   0.92385193 
C    0.96050909  -0.09514187  -2.48275433 
C   -0.31343640  -0.70295520  -2.50738702 
C    1.06734743  -2.00351591  -1.23956698 
C    1.81907747  -0.91795335  -1.71801958 
H    1.22113549   0.81927373  -2.99200394 
C   -0.25602013  -1.86796282  -1.71997332 
H   -1.18379976  -0.34927542  -3.04506099 
H    2.87415746  -0.76472851  -1.56346384 
H    1.42956356  -2.82277110  -0.63487931 
H   -1.04599805  -2.59105868  -1.61321439 
C   -2.37371405  -1.56658232   1.29112731 
H   -2.25563491  -1.45928146   2.36641754 
H   -2.11093503  -2.70286561   1.09243367 
H   -3.40427437  -1.48918852   0.99279118 
C   -1.90045325   1.89150850  -0.83846760 
H   -2.12705259  -0.02275989   0.43747225 
H   -1.15938092   2.58135381  -1.33531761 
H   -2.53387903   2.58224077  -0.24823395 
H   -2.53239367   1.52949656  -1.66227972 
*
