! EnGrad PBEh-3c
%output 
xyzfile=True 
end 
%scf 
maxiter 250 
end
%output
Print[P_Hirshfeld] = 1
end
% maxcore
4000
*xyz 0 1
Lu   0.09544992   0.15753455  -0.06568697 
C    0.44364687   0.84397871   2.47861881 
C    1.42952283  -0.12626814   2.20990549 
C    2.34127306   0.42396700   1.28702383 
C    1.89551470   1.71846246   0.96316451 
C    0.72780666   1.98708152   1.71470853 
H    2.38030332   2.41662961   0.28655785 
H    0.14912710   2.89597650   1.69785931 
H   -0.28462202   0.78918448   3.28118793 
H    1.47509144  -1.11259897   2.65305267 
H    3.23427773  -0.05520953   0.92459862 
C    0.95993677  -0.10092259  -2.48478147 
C   -0.32103978  -0.69809353  -2.49434283 
C    1.06096446  -2.00215079  -1.23210664 
C    1.81824035  -0.91896183  -1.72616001 
H    1.21648440   0.82490226  -2.98752204 
C   -0.25484938  -1.86835642  -1.71904087 
H   -1.17978051  -0.35711783  -3.04856085 
H    2.87238780  -0.76566750  -1.56202448 
H    1.42984443  -2.82357419  -0.63745375 
H   -1.04667820  -2.60096445  -1.62017471 
C   -2.37179207  -1.59630053   1.29796028 
H   -2.25995452  -1.46463370   2.37517071 
H   -2.13753092  -2.73459055   1.10784049 
H   -3.36146961  -1.49561649   0.98727785 
C   -1.91168614   1.91165679  -0.84983074 
H   -2.17178119   0.02229325   0.43209471 
H   -1.16414347   2.59435720  -1.34144972 
H   -2.53769113   2.60089540  -0.25796803 
H   -2.53089027   1.53546521  -1.66837510 
*
