! EnGrad PBEh-3c
%output 
xyzfile=True 
end 
%scf 
maxiter 250 
end
%output
Print[P_Hirshfeld] = 1
end
% maxcore
4000
*xyz 0 1
Lu  -0.00046355   0.16299988  -0.05459418 
C    0.43733390   0.84082468   2.47675734 
C    1.44339634  -0.12266463   2.21831355 
C    2.33576383   0.41683205   1.28175652 
C    1.88510289   1.71618589   0.94751446 
C    0.74024739   1.99210602   1.72656949 
H    2.37940885   2.41308972   0.29238755 
H    0.14517121   2.89576921   1.69688158 
H   -0.29493371   0.77936893   3.26101200 
H    1.48063795  -1.11084533   2.65327134 
H    3.23666245  -0.05650256   0.92101546 
C    0.95603753  -0.09378878  -2.47735276 
C   -0.31621668  -0.70417896  -2.50447040 
C    1.06662312  -2.00409280  -1.23799136 
C    1.81541097  -0.91467953  -1.71368551 
H    1.21861175   0.81881540  -2.98964764 
C   -0.25505936  -1.87036407  -1.71969326 
H   -1.18678999  -0.35012843  -3.03948061 
H    2.87375198  -0.76218419  -1.56331994 
H    1.43336891  -2.82426584  -0.63631161 
H   -1.04635025  -2.59187255  -1.60687773 
C   -2.36165269  -1.56340286   1.27314109 
H   -2.25430507  -1.44514139   2.35873338 
H   -2.09302632  -2.66194056   1.08616890 
H   -3.41049879  -1.48763694   0.98811838 
C   -1.89374718   1.89064449  -0.83871855 
H   -2.12720786  -0.03911516   0.44512288 
H   -1.15645819   2.57013347  -1.32793936 
H   -2.52864320   2.57815174  -0.25174373 
H   -2.52793891   1.53114837  -1.66267331 
*
