! EnGrad PBEh-3c
%output 
xyzfile=True 
end 
%scf 
maxiter 250 
end
%output
Print[P_Hirshfeld] = 1
end
% maxcore
4000
*xyz 0 1
Lu   0.01238725   0.15712199  -0.05018703 
C    0.43859626   0.83917044   2.48518261 
C    1.44004475  -0.12947352   2.21376033 
C    2.33301297   0.41515035   1.27982954 
C    1.88171261   1.71859223   0.94668545 
C    0.73160148   1.98409530   1.71894604 
H    2.37297757   2.41112096   0.28989205 
H    0.14340033   2.89229087   1.70091008 
H   -0.29527050   0.77275272   3.26205384 
H    1.48762346  -1.11139552   2.65565505 
H    3.23669083  -0.05489454   0.91880791 
C    0.95062911  -0.09187827  -2.47485376 
C   -0.32016088  -0.70365828  -2.49574671 
C    1.06516385  -2.00280300  -1.23337910 
C    1.81274861  -0.91345903  -1.71076237 
H    1.21425474   0.81938888  -2.98503850 
C   -0.25711510  -1.87497531  -1.71941834 
H   -1.18915063  -0.35341743  -3.03569039 
H    2.87187518  -0.75989623  -1.56266880 
H    1.43710389  -2.82622919  -0.63857034 
H   -1.04588223  -2.59538844  -1.60325240 
C   -2.33939604  -1.57061282   1.26665086 
H   -2.25515143  -1.43298449   2.35075762 
H   -2.08407788  -2.63352564   1.08398205 
H   -3.41033700  -1.48628502   0.97725018 
C   -1.89104659   1.89596368  -0.84213113 
H   -2.14286249  -0.03930682   0.44998766 
H   -1.15492707   2.56325814  -1.32245710 
H   -2.52569286   2.58122299  -0.25774956 
H   -2.52375006   1.53423391  -1.66594674 
*
