! EnGrad PBEh-3c
%output 
xyzfile=True 
end 
%scf 
maxiter 250 
end
%output
Print[P_Hirshfeld] = 1
end
% maxcore
4000
*xyz 0 1
Lu  -0.00920489   0.15264520  -0.04294417 
C    0.44355341   0.83503258   2.48369353 
C    1.44007360  -0.12957914   2.21507625 
C    2.33038198   0.41496705   1.27483042 
C    1.87454467   1.71133541   0.94490966 
C    0.72725358   1.98123057   1.72032466 
H    2.36846431   2.41082158   0.28740305 
H    0.14050387   2.88804990   1.70354744 
H   -0.30132264   0.76408201   3.26008822 
H    1.49533082  -1.11294791   2.65805168 
H    3.23653956  -0.05372865   0.91621071 
C    0.94644813  -0.09207535  -2.46702880 
C   -0.32420141  -0.70552427  -2.49372173 
C    1.06466710  -2.00459058  -1.23177060 
C    1.80972096  -0.90904376  -1.70635428 
H    1.21116723   0.81989858  -2.98265300 
C   -0.25461437  -1.87636636  -1.71839218 
H   -1.19295797  -0.35419487  -3.02866534 
H    2.87001459  -0.75709900  -1.56251661 
H    1.44111192  -2.82758654  -0.64035518 
H   -1.04719696  -2.59739988  -1.59600608 
C   -2.34574950  -1.54457424   1.25146023 
H   -2.25275816  -1.41824405   2.33933311 
H   -2.05789215  -2.60600525   1.07297446 
H   -3.40285507  -1.48576537   0.97348310 
C   -1.88885722   1.88871672  -0.83988870 
H   -2.13930474  -0.05400525   0.45468659 
H   -1.14677280   2.55305481  -1.31566912 
H   -2.52181376   2.57848984  -0.26008511 
H   -2.51906748   1.53585932  -1.66678583 
*
