! EnGrad PBEh-3c
%output 
xyzfile=True 
end 
%scf 
maxiter 250 
end
%output
Print[P_Hirshfeld] = 1
end
% maxcore
4000
*xyz 0 1
Lu  -0.06040746   0.12080644  -0.01058735 
C    0.44441836   0.81577003   2.50155671 
C    1.44669292  -0.14548224   2.21150255 
C    2.31808398   0.40595657   1.25755871 
C    1.84720375   1.69707338   0.92988574 
C    0.70146329   1.95717744   1.71660631 
H    2.33534664   2.40124306   0.27728734 
H    0.12239850   2.86639862   1.71902502 
H   -0.31515836   0.72161463   3.25155573 
H    1.53437616  -1.11852596   2.67049173 
H    3.23296449  -0.04535086   0.90296725 
C    0.92226557  -0.08356180  -2.43821113 
C   -0.34156946  -0.71310773  -2.47001400 
C    1.06599231  -2.00600175  -1.22019355 
C    1.79473146  -0.89747577  -1.68346662 
H    1.18899006   0.82068186  -2.96194992 
C   -0.25755471  -1.89506926  -1.71020783 
H   -1.21511211  -0.36216766  -2.99651688 
H    2.85766967  -0.74241154  -1.56038600 
H    1.46126644  -2.83672207  -0.65035634 
H   -1.04744922  -2.61020531  -1.56531188 
C   -2.33362279  -1.43585821   1.19583101 
H   -2.24664291  -1.34593152   2.28282241 
H   -1.94369249  -2.48946847   1.02674789 
H   -3.36450260  -1.48410127   0.93769070 
C   -1.88597371   1.86372471  -0.83121026 
H   -2.14924789  -0.08152123   0.46412681 
H   -1.10614836   2.50705843  -1.28260395 
H   -2.50939678   2.58058441  -0.27695616 
H   -2.49883955   1.54637369  -1.68004503 
*
