! EnGrad PBEh-3c
%output 
xyzfile=True 
end 
%scf 
maxiter 250 
end
%output
Print[P_Hirshfeld] = 1
end
% maxcore
4000
*xyz 0 1
Lu  -0.05023927   0.10001358   0.00225057 
C    0.45727897   0.80429361   2.49864157 
C    1.43973585  -0.15059330   2.20909940 
C    2.31117871   0.40669358   1.24978023 
C    1.83077770   1.68338589   0.93166247 
C    0.68446918   1.94090869   1.71353047 
H    2.31947860   2.39962329   0.26691155 
H    0.11236140   2.85512484   1.72621221 
H   -0.32499409   0.70190423   3.25979370 
H    1.55336804  -1.12338853   2.67744033 
H    3.22944550  -0.04220159   0.89521514 
C    0.90999324  -0.08634510  -2.42102864 
C   -0.35391690  -0.71624043  -2.45484637 
C    1.06038901  -2.00906595  -1.21141527 
C    1.78676104  -0.88928958  -1.67716426 
H    1.17671022   0.82577610  -2.95072992 
C   -0.25268387  -1.89804716  -1.70427927 
H   -1.22499986  -0.36794012  -2.98122729 
H    2.84954058  -0.73498296  -1.55673309 
H    1.46997290  -2.84008233  -0.65559575 
H   -1.05072843  -2.62341139  -1.55358321 
C   -2.30575670  -1.39340564   1.17114848 
H   -2.24569650  -1.30954820   2.26282045 
H   -1.89756884  -2.43841943   1.00688626 
H   -3.34541863  -1.48470280   0.91240452 
C   -1.88901649   1.85226449  -0.82533134 
H   -2.16042196  -0.06337623   0.45368113 
H   -1.08814110   2.48029200  -1.26188131 
H   -2.50787332   2.58493979  -0.28418748 
H   -2.49202769   1.55026375  -1.68855452 
*
