! EnGrad PBEh-3c
%output 
xyzfile=True 
end 
%scf 
maxiter 250 
end
%output
Print[P_Hirshfeld] = 1
end
% maxcore
4000
*xyz 0 1
C   -1.54664394   0.19064369  -0.52784959 
C   -2.03122241  -0.87040037  -1.28300997 
C   -1.66105476  -2.16609181  -0.98621538 
C   -0.75374611  -2.41910664   0.02474568 
C   -0.72356904  -0.12870957   0.52990385 
C   -0.27964262  -1.39438022   0.83028248 
H   -1.91248331   1.16588879  -0.82858347 
H   -2.74742946  -0.68999431  -2.07841037 
H   -2.10209562  -2.99042141  -1.54240817 
H    0.43136436  -1.65237289   1.60572373 
H   -0.46501626  -3.44168103   0.23888490 
Pd   1.43818527   1.11435816  -0.09851318 
O    3.21019308   1.26871381  -1.27517521 
O    2.65417134  -0.53145932  -0.21582135 
O    0.36740895   2.84439640   0.12983259 
C    0.00720301   2.96707450   1.29779909 
O    0.38509132   2.14431685   2.20848846 
H   -1.26505909   1.24506583   2.81836879 
C    3.41110058   0.06571124  -1.02092389 
H    4.29810398  -0.46420027  -1.41286812 
H   -0.71485368   3.74263858   1.58576036 
*
