! EnGrad PBEh-3c
%output 
xyzfile=True 
end 
%scf 
maxiter 250 
end
%output
Print[P_Hirshfeld] = 1
end
% maxcore
4000
*xyz 0 1
C   -1.58228537   0.19216807  -0.42989619 
C   -2.02396105  -0.84991200  -1.24474418 
C   -1.61127040  -2.15336964  -0.99755514 
C   -0.74931252  -2.40135746   0.05955162 
C   -0.71117271  -0.00272789   0.68743289 
C   -0.32322554  -1.35672637   0.87518232 
H   -1.91163193   1.19565801  -0.66837989 
H   -2.66149191  -0.65170336  -2.09591205 
H   -1.96077754  -2.97454130  -1.62476564 
H    0.35604506  -1.57792320   1.68513143 
H   -0.39172209  -3.40609187   0.23241194 
Pd   1.27922315   1.00054950   0.01289695 
O    3.12592966   1.27132467  -1.28610777 
O    2.53852118  -0.53092221  -0.21100298 
O    0.36536328   2.74185889   0.15920790 
C   -0.00990288   2.91918626   1.33864816 
O    0.18869661   2.09768961   2.29277649 
H   -0.80060760   1.05105943   2.08306404 
C    3.32547670   0.08275265  -0.99552265 
H    4.18686290  -0.47364024  -1.39833746 
H   -0.62988441   3.80848200   1.50904283 
*
