! EnGrad PBEh-3c
%output 
xyzfile=True 
end 
%scf 
maxiter 250 
end
%output
Print[P_Hirshfeld] = 1
end
% maxcore
4000
*xyz 0 1
C   -1.58224925   0.19649109  -0.41853978 
C   -2.01719899  -0.84455627  -1.23906110 
C   -1.60553550  -2.14741018  -0.99521263 
C   -0.74448037  -2.39437173   0.06119587 
C   -0.73813314   0.00380835   0.72716951 
C   -0.32728728  -1.35266812   0.88708121 
H   -1.91789575   1.20040253  -0.65366619 
H   -2.65021445  -0.64446622  -2.09185666 
H   -1.94025891  -2.96357151  -1.62925470 
H    0.35111427  -1.57554536   1.69973657 
H   -0.38388158  -3.39705245   0.23463336 
Pd   1.28175709   0.99481001   0.00338896 
O    3.10499752   1.27043414  -1.27504718 
O    2.52854039  -0.54072012  -0.21204242 
O    0.35830432   2.72809796   0.16658685 
C   -0.01614431   2.91030526   1.35086543 
O    0.15084393   2.09754348   2.29961331 
H   -0.71818065   1.00894855   1.94880230 
C    3.31197333   0.07825444  -0.99449796 
H    4.17217001  -0.47295533  -1.39406659 
H   -0.61983769   3.82361481   1.50544864 
*
