! EnGrad PBEh-3c
%output 
xyzfile=True 
end 
%scf 
maxiter 250 
end
%output
Print[P_Hirshfeld] = 1
end
% maxcore
4000
*xyz 0 1
C   -1.56956636   0.17832302  -0.53727525 
C   -2.04403171  -0.87234146  -1.28844914 
C   -1.66427772  -2.17729436  -0.99649938 
C   -0.75845166  -2.43741660   0.03548555 
C   -0.67920547  -0.07093005   0.55069324 
C   -0.28361528  -1.40927676   0.82251973 
H   -1.89978593   1.17235834  -0.81062051 
H   -2.74147446  -0.68736304  -2.07914684 
H   -2.09292539  -2.98568746  -1.54264282 
H    0.42698922  -1.63863652   1.61020636 
H   -0.46100791  -3.44019278   0.23683590 
Pd   1.39322825   1.09235968  -0.05428175 
O    3.20947423   1.27675489  -1.28770211 
O    2.62137887  -0.52697365  -0.21783873 
O    0.38772272   2.84129193   0.05850237 
C    0.01095710   2.90651276   1.40473817 
O    0.34139667   2.17289003   2.18188809 
H   -1.21915621   1.24395907   2.76710786 
C    3.44342835   0.07008863  -1.01242671 
H    4.28809107  -0.46167598  -1.41779653 
H   -0.70896494   3.75167717   1.57429422 
*
