! EnGrad PBEh-3c
%output 
xyzfile=True 
end 
%scf 
maxiter 250 
end
%output
Print[P_Hirshfeld] = 1
end
% maxcore
4000
*xyz 0 1
C   -1.58383202   0.20477471  -0.39324517 
C   -2.00259068  -0.83300563  -1.22930891 
C   -1.58730358  -2.13700677  -0.99639152 
C   -0.73265133  -2.38055122   0.06705108 
C   -0.77223431   0.01119141   0.77863546 
C   -0.33518777  -1.34219867   0.91031759 
H   -1.93180956   1.20575123  -0.62253008 
H   -2.62679292  -0.63163102  -2.09092047 
H   -1.89387624  -2.94730911  -1.64885728 
H    0.33710197  -1.56990590   1.72632523 
H   -0.36423799  -3.38324786   0.23553725 
Pd   1.27763969   0.98196167  -0.00585825 
O    3.06360142   1.26359051  -1.26429979 
O    2.50863408  -0.55689693  -0.20783943 
O    0.35026067   2.70585042   0.18285283 
C   -0.03507825   2.90089506   1.37117252 
O    0.07928229   2.09669138   2.30582045 
H   -0.58428818   0.95055937   1.74353134 
C    3.28450961   0.06786625  -0.99351500 
H    4.14183022  -0.47779459  -1.39232294 
H   -0.59496948   3.84603416   1.50177252 
*
