! EnGrad PBEh-3c
%output 
xyzfile=True 
end 
%scf 
maxiter 250 
end
%output
Print[P_Hirshfeld] = 1
end
% maxcore
4000
*xyz 0 1
C   -1.56278824   0.21647960  -0.39789288 
C   -1.99682362  -0.81893631  -1.21480599 
C   -1.56249553  -2.12086302  -0.98970405 
C   -0.73159812  -2.37504209   0.09596350 
C   -0.64346899   0.00975313   0.66823612 
C   -0.30956274  -1.34151075   0.91504943 
H   -1.91677565   1.21118217  -0.61819161 
H   -2.62614608  -0.61598955  -2.07361201 
H   -1.84566279  -2.92657691  -1.67187751 
H    0.35294588  -1.57180224   1.73289669 
H   -0.36354235  -3.37970298   0.25320603 
Pd   1.23014129   0.95036938  -0.02269586 
O    3.02026062   1.24209289  -1.22203386 
O    2.47930393  -0.61445682  -0.23453163 
O    0.32881470   2.69093937   0.21436620 
C   -0.09934445   2.92017293   1.39635379 
O   -0.05678222   2.16375541   2.36735103 
H   -0.51027235   0.86677586   1.62771879 
C    3.26588448   0.04387516  -0.97797562 
H    4.12824796  -0.48102475  -1.41382698 
H   -0.57605962   3.90014199   1.53202977 
*
