! EnGrad PBEh-3c
%output 
xyzfile=True 
end 
%scf 
maxiter 250 
end
%output
Print[P_Hirshfeld] = 1
end
% maxcore
4000
*xyz 0 1
C   -1.55828869   0.18438470  -0.53263789 
C   -2.03772963  -0.87138646  -1.28577311 
C   -1.66269205  -2.17178279  -0.99143973 
C   -0.75613656  -2.42840823   0.03020161 
C   -0.70103202  -0.09935715   0.54046501 
C   -0.28166076  -1.40194777   0.82633895 
H   -1.90603295   1.16917537  -0.81945816 
H   -2.74440428  -0.68865760  -2.07878450 
H   -2.09743708  -2.98801653  -1.54252737 
H    0.42914176  -1.64539471   1.60800094 
H   -0.46297999  -3.44092499   0.23784400 
Pd   1.41534678   1.10318277  -0.07604329 
O    3.20982790   1.27279874  -1.28153897 
O    2.63751253  -0.52918057  -0.21684619 
O    0.37772849   2.84281930   0.09359632 
C    0.00911012   2.93630869   1.35212492 
O    0.36289412   2.15883223   2.19497528 
H   -1.24174009   1.24450358   2.79232787 
C    3.42752332   0.06793499  -1.01660726 
H    4.29301735  -0.46291791  -1.41537179 
H   -0.71186216   3.74723025   1.57993548 
*
