! EnGrad PBEh-3c
%output 
xyzfile=True 
end 
%scf 
maxiter 250 
end
%output
Print[P_Hirshfeld] = 1
end
% maxcore
4000
*xyz 0 1
C   -1.56852631   0.17889355  -0.52991491 
C   -2.04429880  -0.87675534  -1.28795362 
C   -1.66148526  -2.17571481  -0.99460943 
C   -0.76256225  -2.43684227   0.03333095 
C   -0.67384632  -0.06572534   0.55102630 
C   -0.28515867  -1.40290273   0.82325844 
H   -1.89790553   1.17375876  -0.80586672 
H   -2.74120142  -0.68616577  -2.08179094 
H   -2.09116794  -2.98755966  -1.54568417 
H    0.42485013  -1.63581442   1.61161503 
H   -0.45845467  -3.44311955   0.23698975 
Pd   1.38226995   1.08879619  -0.04704939 
O    3.21044771   1.27216625  -1.28856949 
O    2.62079924  -0.52306680  -0.22310362 
O    0.38398187   2.83732457   0.08158773 
C    0.00649982   2.92649748   1.35651668 
O    0.34702325   2.15078415   2.20918915 
H   -1.20883367   1.23903957   2.75046207 
C    3.43427243   0.07669237  -1.00468846 
H    4.28892606  -0.46357003  -1.41986193 
H   -0.70521816   3.75103099   1.57203525 
*
