! EnGrad PBEh-3c
%output 
xyzfile=True 
end 
%scf 
maxiter 250 
end
%output
Print[P_Hirshfeld] = 1
end
% maxcore
4000
*xyz 0 1
C   -1.57245745   0.17642169  -0.51887604 
C   -2.04684187  -0.88096874  -1.28636123 
C   -1.65765475  -2.17720208  -0.99599135 
C   -0.76828323  -2.43833170   0.03551345 
C   -0.65398476  -0.04345411   0.55675963 
C   -0.28937985  -1.39552931   0.82289143 
H   -1.89238021   1.17748785  -0.79144939 
H   -2.73815871  -0.68332312  -2.08744392 
H   -2.08330088  -2.98937632  -1.55258093 
H    0.41867943  -1.62693077   1.61589165 
H   -0.45201480  -3.44726962   0.23624418 
Pd   1.35190253   1.07484555  -0.02328229 
O    3.20969041   1.27010044  -1.29401045 
O    2.60825911  -0.51716822  -0.22866242 
O    0.38484387   2.82901641   0.09250933 
C    0.00377063   2.93028546   1.33200427 
O    0.33540586   2.13460560   2.23178663 
H   -1.17450477   1.22981013   2.70257906 
C    3.42957822   0.08529871  -0.99317460 
H    4.28438898  -0.46570619  -1.42343516 
H   -0.69674754   3.75346231   1.56417274 
*
