! EnGrad PBEh-3c
%output 
xyzfile=True 
end 
%scf 
maxiter 250 
end
%output
Print[P_Hirshfeld] = 1
end
% maxcore
4000
*xyz 0 1
C   -1.56778793   0.17864624  -0.49065662 
C   -2.04274091  -0.87668864  -1.27505019 
C   -1.64801306  -2.17606338  -0.99824053 
C   -0.76871218  -2.42758564   0.04286855 
C   -0.64416560  -0.03667553   0.55824826 
C   -0.29654101  -1.37379337   0.82908913 
H   -1.89161070   1.17983012  -0.76659443 
H   -2.72921235  -0.67861699  -2.09800080 
H   -2.06350726  -2.99431723  -1.57142641 
H    0.40413386  -1.61480414   1.62449722 
H   -0.43885207  -3.45020614   0.23439492 
Pd   1.31884646   1.05299904  -0.00234758 
O    3.20041397   1.27081904  -1.29842471 
O    2.59267465  -0.51425095  -0.22762820 
O    0.37864455   2.81205263   0.13284710 
C    0.00176655   2.93629379   1.29746022 
O    0.30974140   2.11867969   2.25076393 
H   -1.11078309   1.21007695   2.60938778 
C    3.40713109   0.08960755  -0.98722411 
H    4.26969526  -0.46985049  -1.42271717 
H   -0.67989192   3.75693996   1.55110523 
*
