39
	Energy: 6021212.2020187
Ir        -1.84740        9.40626        5.45403
C         -2.61134        7.57597        6.77057
C         -2.62506        8.84618        6.99711
C         -0.26664        8.13415        6.73196
C         -1.36426        7.48409        5.89552
C         -0.85836        9.26766        6.97130
N         -3.40642        9.09839        3.74924
C         -4.64532        8.10286        3.65250
C         -5.37166        8.00014        5.19361
H         -6.43941        7.71094        4.78928
H         -5.71574        8.97962        5.61758
H         -4.99885        7.48010        5.81217
C         -6.15090        8.69086        2.57202
H         -4.16221        7.01184        3.40350
H         -7.05700        8.41385        3.34318
H         -6.34286        9.65249        2.12359
H         -6.46595        7.85957        2.07041
C         -3.20367        9.40446        2.29454
C         -2.16197       10.25040        1.86845
H         -4.05558        9.41712        1.69491
C         -0.99476       10.06101        2.54943
C          0.10151       10.62147        1.74341
S         -2.16148       11.28164        0.44515
C         -0.41816       11.53925        0.72198
H          0.15338        9.15176        4.17610
H          1.16394       10.66949        1.95823
H          0.18551       12.26287        0.16791
H         -3.33689        6.91968        7.18439
H         -3.16776        9.26944        7.80872
H         -0.55602        9.97153        7.75687
O          0.43861        9.88456        4.77619
O         -1.44742       11.31481        5.03893
C         -0.04242       11.21715        4.71832
C          1.07910       11.93286        5.46091
H          1.95544       11.62552        4.83064
H          1.31174       11.50771        6.46963
H          1.08416       13.02811        5.45351
H          0.81850        8.22325        6.74971
H         -1.25530        6.55390        5.34244
