39
	Energy:  185659.5918901
Ir        -1.94691        9.69923        5.39921
C         -2.55316        7.39291        7.07803
C         -2.56468        8.78597        7.62958
C         -0.14964        8.22040        7.33922
C         -0.96565        7.11180        6.16743
C         -0.97068        9.38139        7.66564
N         -3.28221        8.96064        3.36719
C         -4.40872        7.96806        3.39321
C         -5.67405        7.85278        3.89499
H         -6.77376        7.55275        3.38570
H         -5.42720        8.93404        4.18558
H         -5.76912        7.30124        4.58417
C         -4.61498        7.80853        1.83768
H         -4.10569        6.99810        3.62914
H         -4.98353        7.35706        1.06648
H         -5.24280        8.37808        1.98440
H         -4.33215        8.46297        1.20471
C         -2.77294        9.28421        2.09418
C         -1.87829        9.91802        1.55462
H         -2.69856        8.83224        1.27438
C         -0.57650        9.54900        1.72103
C          0.28679       10.54296        1.27348
S         -2.02931       11.37982        0.77755
C         -0.36818       11.63994        0.72368
H         -0.25837        8.63575        2.21344
H          1.36015       10.47661        1.37415
H          0.10850       12.52823        0.33882
H         -3.43828        7.09192        7.11991
H         -3.56010        9.16867        8.40446
H         -0.84358        9.96694        8.55470
O         -0.82230       10.84648        3.94118
O         -1.29610       11.29252        6.01905
C         -0.25538       11.44776        5.08802
C          1.14884       11.90606        5.52425
H          1.89656       11.51659        4.77064
H          1.46396       11.54872        6.52174
H          1.25724       12.99052        5.40275
H          0.87466        8.58851        7.15785
H         -1.07469        6.25095        5.47671
