! EnGrad PBEh-3c
%output 
xyzfile=True 
end 
%scf 
maxiter 250 
end
%output
Print[P_Hirshfeld] = 1
end
% maxcore
4000
%pal nprocs 4
end
*xyz 1 1
Ir   0.42775000  -0.66288000   1.12667000 
C    0.11656000  -2.53642000   2.13726000 
C    1.42343000  -2.04478000   2.46843000 
C    1.31798000  -2.37167000   0.17606000 
C    0.05481000  -2.74967000   0.74025000 
C    2.15344000  -1.96168000   1.25419000 
N   -0.82601000   0.10228000  -0.35707000 
C   -2.26896000   0.27663000  -0.01032000 
C   -2.71332000   1.72021000  -0.19588000 
H   -3.73982000   1.83283000   0.15143000 
H   -2.68938000   2.03315000  -1.24081000 
H   -2.09511000   2.40877000   0.37855000 
C   -3.14440000  -0.70623000  -0.77791000 
H   -2.35715000   0.03871000   1.04729000 
H   -4.16081000  -0.66499000  -0.38849000 
H   -3.20222000  -0.48166000  -1.84364000 
H   -2.79200000  -1.73187000  -0.66588000 
C   -0.50771000   0.29551000  -1.58302000 
C    0.77965000   0.19398000  -2.21900000 
H   -1.32103000   0.54031000  -2.26655000 
C    2.06614000   0.39977000  -1.77236000 
C    3.02696000   0.21182000  -2.78373000 
S    0.77693000  -0.19861000  -3.90554000 
C    2.46872000  -0.12867000  -3.98443000 
H    2.31603000   0.73932000  -0.78027000 
H    4.08899000   0.34019000  -2.63884000 
H    2.97990000  -0.33812000  -4.91130000 
H   -0.69134000  -2.70067000   2.83617000 
H    1.79243000  -1.81938000   3.45724000 
H    3.16456000  -1.59159000   1.15608000 
O    1.27529000   1.26690000   1.19797000 
O   -0.44848000   0.81143000   2.36590000 
C    0.39525000   1.67983000   2.00857000 
C    0.37338000   3.07522000   2.51660000 
H    0.66772000   3.77637000   1.73831000 
H    1.09417000   3.17203000   3.33072000 
H   -0.60800000   3.33605000   2.90443000 
H    1.60480000  -2.43844000  -0.86230000 
H   -0.79913000  -3.12398000   0.19523000 
*
