! EnGrad PBEh-3c
%output 
xyzfile=True 
end 
%scf 
maxiter 250 
end
%output
Print[P_Hirshfeld] = 1
end
% maxcore
4000
*xyz 0 1
Lu   0.00367122  -0.33131262   0.25497713 
C    0.48341621   0.65395311   2.60249293 
C    1.54860423  -0.20976217   2.26459400 
C    2.30903631   0.41208213   1.25420587 
C    1.70117007   1.63904078   0.93981348 
C    0.57578858   1.79297654   1.78033206 
H    2.08167422   2.37068879   0.23887017 
H   -0.06205483   2.66641016   1.82517522 
H   -0.25454191   0.48079552   3.37167190 
H    1.77060290  -1.16068931   2.73048986 
H    3.22884649   0.03387775   0.83017767 
C    0.77291076  -0.10128168  -2.30809031 
C   -0.44866880  -0.81654269  -2.31085772 
C    1.10825472  -2.07965100  -1.22594486 
C    1.73394521  -0.89101417  -1.65523026 
H    0.96327163   0.84262874  -2.79826337 
C   -0.23907103  -2.04003849  -1.65158534 
H   -1.36468940  -0.50060557  -2.78733977 
H    2.78293984  -0.65605138  -1.55941390 
H    1.59674149  -2.90561041  -0.72869195 
H   -0.98257692  -2.80208398  -1.48069218 
C   -1.96488312  -1.43947188   1.12796731 
H   -2.25866106  -1.15551387   2.14716222 
H   -1.79766812  -2.52838592   1.18638223 
H   -2.89393561  -1.34725437   0.54214053 
C   -2.07543649   2.04210454  -0.93354768 
H   -2.13902823   1.22055580  -0.17321550 
H   -1.00307606   2.26853294  -0.99443782 
H   -2.66172939   2.86579389  -0.50586104 
H   -2.50116011   1.64256824  -1.86390916 
*
