! EnGrad PBEh-3c
%output 
xyzfile=True 
end 
%scf 
maxiter 250 
end
%output
Print[P_Hirshfeld] = 1
end
% maxcore
4000
*xyz 0 1
Lu  -0.02011544  -0.30261274   0.25253662 
C    0.50995443   0.60061108   2.62810961 
C    1.59826531  -0.22384498   2.26924394 
C    2.32924527   0.43515146   1.25784338 
C    1.67752944   1.64551516   0.96697187 
C    0.55099227   1.74769501   1.81486823 
H    1.98962897   2.38393951   0.24617234 
H   -0.09823750   2.60615678   1.90097961 
H   -0.20143992   0.39968226   3.41137176 
H    1.85374776  -1.16764490   2.72165959 
H    3.26356047   0.10030301   0.83181411 
C    0.73764802  -0.12184334  -2.29984185 
C   -0.46919396  -0.85803864  -2.26821279 
C    1.14076198  -2.09830620  -1.24080596 
C    1.73276785  -0.89695940  -1.68248584 
H    0.87780502   0.84177790  -2.77468586 
C   -0.21898393  -2.07857895  -1.62259508 
H   -1.39646670  -0.57859966  -2.74095452 
H    2.78091098  -0.64448428  -1.60681513 
H    1.65263043  -2.91841079  -0.76438604 
H   -0.93509997  -2.87528347  -1.47448961 
C   -1.97103872  -1.42594871   1.13462049 
H   -2.32884724  -1.11677436   2.12234352 
H   -1.90923518  -2.52349175   1.22223856 
H   -2.84729227  -1.30617398   0.48023936 
C   -2.02628689   2.03093434  -0.90630998 
H   -2.28195700   1.19929682  -0.14083908 
H   -1.02707454   2.45989396  -1.14619567 
H   -2.58290996   2.94839694  -0.64724794 
H   -2.38004000   1.73205347  -1.90513662 
*
