! EnGrad PBEh-3c
%output 
xyzfile=True 
end 
%scf 
maxiter 250 
end
%output
Print[P_Hirshfeld] = 1
end
% maxcore
4000
*xyz 0 1
Lu  -0.02572049  -0.30529559   0.25378346 
C    0.50900141   0.60810739   2.62646772 
C    1.59216065  -0.22096491   2.26718837 
C    2.32723950   0.43205813   1.25676141 
C    1.68211475   1.64576978   0.96647497 
C    0.55609687   1.75483206   1.81212499 
H    2.00084027   2.38316334   0.24478673 
H   -0.09424627   2.61401131   1.89237075 
H   -0.20704218   0.40907568   3.40668261 
H    1.84407442  -1.16719950   2.72215540 
H    3.26146482   0.09331918   0.83280922 
C    0.74280294  -0.11937038  -2.30377398 
C   -0.46531216  -0.85384722  -2.27548212 
C    1.13640804  -2.09433614  -1.23852565 
C    1.73409068  -0.89637321  -1.67944250 
H    0.88794377   0.84226630  -2.77787483 
C   -0.22146343  -2.07562248  -1.62678598 
H   -1.39283994  -0.56964338  -2.74666052 
H    2.78220261  -0.64668338  -1.60324258 
H    1.64676935  -2.91747807  -0.76093051 
H   -0.94036339  -2.86641019  -1.47504283 
C   -1.97079119  -1.42988064   1.13336863 
H   -2.32287479  -1.12350164   2.12342495 
H   -1.89860788  -2.52466444   1.22016739 
H   -2.85355688  -1.31290548   0.48959959 
C   -2.03485964   2.02354182  -0.90146414 
H   -2.25827519   1.22676696  -0.16692439 
H   -1.03885184   2.43076233  -1.12432061 
H   -2.58700721   2.93095736  -0.63161711 
H   -2.38948878   1.72237330  -1.89004507 
*
