! EnGrad PBEh-3c
%output 
xyzfile=True 
end 
%scf 
maxiter 250 
end
%output
Print[P_Hirshfeld] = 1
end
% maxcore
4000
*xyz 0 1
Lu  -0.03071105  -0.31859775   0.25806371 
C    0.50213509   0.63068819   2.62088460 
C    1.57462220  -0.21799704   2.26373537 
C    2.32113640   0.42295958   1.25275367 
C    1.69377466   1.64668436   0.95875588 
C    0.56808039   1.77579222   1.80462192 
H    2.03543471   2.37921962   0.24186073 
H   -0.08275311   2.63678359   1.86434842 
H   -0.22568618   0.43747311   3.39214441 
H    1.81416499  -1.16407653   2.72395686 
H    3.25156145   0.07026391   0.83386929 
C    0.75782889  -0.11378037  -2.31041969 
C   -0.45549096  -0.84168683  -2.29599164 
C    1.12373494  -2.08661538  -1.22963203 
C    1.73396436  -0.89145219  -1.67004057 
H    0.91959075   0.84416374  -2.78749752 
C   -0.22777536  -2.06267211  -1.64041514 
H   -1.38285230  -0.54077507  -2.76308858 
H    2.78529885  -0.65191742  -1.58913711 
H    1.62763390  -2.91296235  -0.74985761 
H   -0.95785329  -2.84022139  -1.47553109 
C   -1.96807066  -1.43857395   1.12834155 
H   -2.30124805  -1.13969527   2.12921655 
H   -1.85888395  -2.52777618   1.21105963 
H   -2.87256904  -1.32977724   0.51442116 
C   -2.06353823   2.04044958  -0.92563221 
H   -2.18342816   1.28740799  -0.22228064 
H   -1.05995317   2.32978878  -1.04397129 
H   -2.60665813   2.87465082  -0.57873066 
H   -2.42624522   1.68746316  -1.84538104 
*
