! EnGrad PBEh-3c
%output 
xyzfile=True 
end 
%scf 
maxiter 250 
end
%output
Print[P_Hirshfeld] = 1
end
% maxcore
4000
*xyz 0 1
Lu  -0.02051776  -0.32205073   0.25710173 
C    0.49903878   0.63476743   2.61652345 
C    1.56791858  -0.21336319   2.26188019 
C    2.31766714   0.42086496   1.25371593 
C    1.69355370   1.64347519   0.95533793 
C    0.57125806   1.77979519   1.79965329 
H    2.04683810   2.37854216   0.24040351 
H   -0.07870925   2.64408510   1.85550536 
H   -0.23250902   0.44706721   3.38817836 
H    1.80495265  -1.16511692   2.72613724 
H    3.24687388   0.06198514   0.83279671 
C    0.76011172  -0.10892478  -2.31092645 
C   -0.45413125  -0.83581316  -2.30003191 
C    1.11941114  -2.08246733  -1.22921899 
C    1.73540707  -0.89247868  -1.66537408 
H    0.92957572   0.84290951  -2.78974937 
C   -0.23085924  -2.06006306  -1.64255953 
H   -1.37921933  -0.53157805  -2.76869158 
H    2.78412853  -0.65293946  -1.58285668 
H    1.62154480  -2.91234195  -0.74457500 
H   -0.96253202  -2.83066080  -1.47652334 
C   -1.96864276  -1.43938564   1.12806066 
H   -2.29219569  -1.14269615   2.13395300 
H   -1.84424918  -2.52899793   1.20574713 
H   -2.87853295  -1.33349590   0.52010306 
C   -2.06882201   2.05292837  -0.93860517 
H   -2.16913755   1.26894089  -0.20632207 
H   -1.03940067   2.31061913  -1.02637694 
H   -2.62416075   2.87541893  -0.55796423 
H   -2.44752937   1.67210383  -1.85453580 
*
