! EnGrad PBEh-3c
%output 
xyzfile=True 
end 
%scf 
maxiter 250 
end
%output
Print[P_Hirshfeld] = 1
end
% maxcore
4000
*xyz 0 1
Lu  -0.01093847  -0.32789279   0.25678101 
C    0.49199156   0.64516857   2.61091254 
C    1.55783917  -0.21203523   2.26216465 
C    2.31399035   0.41635243   1.25284330 
C    1.69774538   1.64233701   0.94769808 
C    0.57528072   1.78863180   1.79206508 
H    2.06576304   2.37533599   0.23942585 
H   -0.07089471   2.65632774   1.83979847 
H   -0.24342884   0.46403295   3.37991208 
H    1.78757506  -1.16314265   2.72787949 
H    3.23865799   0.04803062   0.83211186 
C    0.76654407  -0.10557118  -2.31086550 
C   -0.45037826  -0.82687128  -2.30779807 
C    1.11358137  -2.07972340  -1.22606571 
C    1.73479236  -0.89115116  -1.65978611 
H    0.94738971   0.84337437  -2.79486655 
C   -0.23481024  -2.05041353  -1.64857770 
H   -1.37255281  -0.51541483  -2.77842415 
H    2.78420705  -0.65508420  -1.57228730 
H    1.60952960  -2.90913020  -0.73699577 
H   -0.97273071  -2.81595931  -1.47782753 
C   -1.96828588  -1.44102700   1.12764497 
H   -2.27669726  -1.14997758   2.13970094 
H   -1.82016207  -2.53057771   1.19749437 
H   -2.88822731  -1.34140913   0.53193754 
C   -2.07579655   2.04930711  -0.93827445 
H   -2.14192272   1.26336916  -0.20410398 
H   -1.02018254   2.27651818  -0.99799801 
H   -2.64885462   2.87138794  -0.52517436 
H   -2.47902835   1.64997551  -1.86118148 
*
