! EnGrad PBEh-3c
%output 
xyzfile=True 
end 
%scf 
maxiter 250 
end
%output
Print[P_Hirshfeld] = 1
end
% maxcore
4000
*xyz 0 1
Lu   0.10078034   0.35824465  -0.19857945 
C    0.37069475   0.98819719   2.38692398 
C    1.32697032  -0.02643466   2.16558079 
C    2.28141070   0.45682137   1.25574021 
C    1.92794340   1.78048682   0.92089542 
C    0.73638521   2.10103201   1.61006794 
H    2.49446855   2.44313411   0.28118050 
H    0.21334880   3.04638869   1.57801373 
H   -0.44387777   0.94383182   3.09471852 
H    1.36213861  -0.98567501   2.66805648 
H    3.17690390  -0.06216373   0.94731247 
C    1.02226044  -0.03924110  -2.56452695 
C   -0.27630025  -0.58964444  -2.60218139 
C    1.01924587  -1.91336123  -1.27673096 
C    1.82107902  -0.85454868  -1.73456566 
H    1.35702748   0.83881562  -3.09956656 
C   -0.26764443  -1.76397386  -1.82871948 
H   -1.11287882  -0.21077469  -3.17086452 
H    2.87757712  -0.73766925  -1.54922426 
H    1.35700938  -2.75603473  -0.68346393 
H   -1.07854471  -2.47215034  -1.73076880 
C   -2.45446534  -1.58343730   1.35126700 
H   -2.51187680  -1.41020479   2.43154393 
H   -2.85367789  -2.56677978   1.08562134 
H   -2.95487577  -0.77919237   0.79476631 
C   -1.80521095   1.68281872  -0.70945106 
H   -1.37679892  -1.64375414   1.08350454 
H   -1.43868135   2.52165401  -1.32856106 
H   -2.36231543   2.14827184   0.11971314 
H   -2.55033327   1.16974383  -1.33850793 
*
