! EnGrad PBEh-3c
%output 
xyzfile=True 
end 
%scf 
maxiter 250 
end
%output
Print[P_Hirshfeld] = 1
end
% maxcore
4000
*xyz 0 1
Lu   0.12511868   0.29724403  -0.16770495 
C    0.37314209   0.99107184   2.38938806 
C    1.32104610  -0.02585785   2.20622706 
C    2.29244148   0.46540108   1.28909307 
C    1.92195181   1.77705932   0.92280636 
C    0.73011454   2.10850770   1.59858308 
H    2.49392575   2.43680938   0.29310160 
H    0.21319148   3.04235865   1.57182888 
H   -0.46327618   0.97189143   3.09462908 
H    1.37529729  -0.95153267   2.72345930 
H    3.16774022  -0.07707293   0.95150308 
C    1.02551217  -0.03711422  -2.55693064 
C   -0.27907553  -0.58468486  -2.60455421 
C    1.01367381  -1.95602576  -1.29273729 
C    1.82340211  -0.87418879  -1.76326016 
H    1.35640500   0.82460857  -3.10172981 
C   -0.27153235  -1.77112038  -1.84283110 
H   -1.11201029  -0.21206334  -3.16701438 
H    2.88002171  -0.75534329  -1.55530552 
H    1.35347417  -2.76940195  -0.70233856 
H   -1.10326449  -2.46496216  -1.79024696 
C   -2.30595425  -1.63909954   1.32331304 
H   -2.56747686  -1.39600920   2.44722984 
H   -3.02070507  -2.51571131   1.07858816 
H   -2.73398539  -0.77672532   0.75058402 
C   -1.84501667   1.69270614  -0.68751973 
H   -1.23142803  -1.77235713   1.15979580 
H   -1.45836377   2.52628763  -1.31298700 
H   -2.46490429   2.24163461   0.08597468 
H   -2.61555321   1.21344094  -1.34447999 
*
