! EnGrad PBEh-3c
%output 
xyzfile=True 
end 
%scf 
maxiter 250 
end
%output
Print[P_Hirshfeld] = 1
end
% maxcore
4000
*xyz 0 1
Lu   0.06737455   0.34364263  -0.18763960 
C    0.37410606   0.99563171   2.39672382 
C    1.32816660  -0.02536859   2.19006356 
C    2.29694273   0.47024248   1.30707527 
C    1.91387140   1.77230482   0.90708162 
C    0.74756013   2.10800070   1.61911807 
H    2.49494020   2.44039452   0.29153579 
H    0.20576689   3.04547751   1.56591903 
H   -0.45214918   0.96701173   3.08992485 
H    1.37364675  -0.96960598   2.72387972 
H    3.16806261  -0.07360625   0.95220556 
C    1.01765308  -0.02667936  -2.54534868 
C   -0.26225503  -0.60458715  -2.62636675 
C    1.01919829  -1.94253721  -1.30292318 
C    1.82248808  -0.88649620  -1.76335220 
H    1.35697180   0.83111445  -3.10491178 
C   -0.27355512  -1.76723628  -1.83234281 
H   -1.11737175  -0.20568924  -3.16198801 
H    2.87837661  -0.75311378  -1.55639314 
H    1.35704139  -2.78106700  -0.69193045 
H   -1.09424662  -2.46841931  -1.78307310 
C   -2.25411617  -1.63895852   1.31775406 
H   -2.54781850  -1.40736835   2.41783626 
H   -2.96301541  -2.50601082   1.08933117 
H   -2.75600640  -0.78938656   0.76556591 
C   -1.81727773   1.67287631  -0.68008263 
H   -1.38713268  -1.73870804   1.16632003 
H   -1.45791516   2.52237151  -1.31457538 
H   -2.44818285   2.22136871   0.08005267 
H   -2.60296763   1.21420600  -1.33714643 
*
