! EnGrad PBEh-3c
%output 
xyzfile=True 
end 
%scf 
maxiter 250 
end
%output
Print[P_Hirshfeld] = 1
end
% maxcore
4000
*xyz 0 1
Lu   0.06832111   0.34757633  -0.18940716 
C    0.36792687   1.00041885   2.39962503 
C    1.33436885  -0.01932788   2.18334663 
C    2.29643330   0.46604530   1.30311829 
C    1.91886739   1.77043946   0.91067599 
C    0.74576076   2.10167514   1.62300716 
H    2.49641141   2.44214726   0.29031229 
H    0.20522996   3.04684729   1.56706848 
H   -0.44679610   0.96595512   3.08993295 
H    1.37340433  -0.97515865   2.72338188 
H    3.16708596  -0.07112503   0.95301024 
C    1.01661433  -0.03186197  -2.54801222 
C   -0.26274833  -0.60653885  -2.62263758 
C    1.02376805  -1.93229298  -1.30635581 
C    1.82412268  -0.89001323  -1.75660736 
H    1.35793424   0.83406679  -3.10648360 
C   -0.27653171  -1.76742589  -1.83559362 
H   -1.11717203  -0.20670590  -3.16242776 
H    2.87670701  -0.75262279  -1.55706486 
H    1.35825483  -2.78300794  -0.68928838 
H   -1.09150916  -2.46992281  -1.78185837 
C   -2.42329325  -1.61423499   1.36216224 
H   -2.52971850  -1.41608010   2.38618346 
H   -2.93120486  -2.49531427   1.09161755 
H   -2.75783923  -0.80411750   0.77510905 
C   -1.83160557   1.68252754  -0.68217299 
H   -1.28902134  -1.74321566   1.14146178 
H   -1.45818280   2.51725398  -1.31190246 
H   -2.43635665   2.21063115   0.07259405 
H   -2.59232925   1.21535628  -1.33168645 
*
