! EnGrad PBEh-3c
%output 
xyzfile=True 
end 
%scf 
maxiter 250 
end
%output
Print[P_Hirshfeld] = 1
end
% maxcore
4000
*xyz 0 1
Lu   0.03495391   0.38994142  -0.20764207 
C    0.38428066   0.99262854   2.39670742 
C    1.33164485  -0.03425208   2.18650222 
C    2.29723543   0.46862743   1.29452440 
C    1.91876133   1.77118298   0.90729467 
C    0.75129453   2.11633913   1.63156962 
H    2.49695656   2.44525387   0.28800948 
H    0.20603529   3.04073665   1.56636142 
H   -0.44130343   0.95733121   3.09779415 
H    1.36995665  -0.97969800   2.70249959 
H    3.17222519  -0.06675452   0.95341033 
C    1.02139357  -0.02804954  -2.54851723 
C   -0.26523657  -0.61197015  -2.63699520 
C    1.02809224  -1.94415067  -1.29172640 
C    1.82193963  -0.87746655  -1.75525060 
H    1.35649986   0.83695083  -3.10544962 
C   -0.26856435  -1.76426695  -1.82978865 
H   -1.11538194  -0.20612192  -3.15797039 
H    2.87824390  -0.74899464  -1.55594307 
H    1.35581497  -2.77255233  -0.68952188 
H   -1.08134534  -2.47895509  -1.76614516 
C   -2.41465793  -1.59454262   1.35056208 
H   -2.51127562  -1.41782564   2.41465213 
H   -2.87791618  -2.54222983   1.08910131 
H   -2.84407041  -0.78195605   0.77484511 
C   -1.81788749   1.68030984  -0.69283611 
H   -1.38944561  -1.69479077   1.12253529 
H   -1.45417069   2.50532148  -1.31040409 
H   -2.40254728   2.17606744   0.07560145 
H   -2.56502965   1.20673820  -1.32254755 
*
