! EnGrad PBEh-3c
%output 
xyzfile=True 
end 
%scf 
maxiter 250 
end
%output
Print[P_Hirshfeld] = 1
end
% maxcore
4000
*xyz 0 1
Lu   0.04644228   0.38440723  -0.20546095 
C    0.38388676   0.99216188   2.39399608 
C    1.32849879  -0.03515643   2.18867794 
C    2.29835228   0.46566414   1.28441803 
C    1.92133897   1.77360646   0.91017482 
C    0.74659118   2.11513447   1.62790639 
H    2.49628572   2.44432848   0.28733769 
H    0.20769228   3.04048286   1.56807869 
H   -0.44282060   0.95568719   3.09868484 
H    1.36929507  -0.97819380   2.69727730 
H    3.17156874  -0.06532713   0.95368311 
C    1.02294771  -0.02974220  -2.55263984 
C   -0.27046352  -0.60686001  -2.63160839 
C    1.02589455  -1.94578249  -1.28641690 
C    1.82637890  -0.87010424  -1.75237041 
H    1.35635223   0.83629074  -3.10386994 
C   -0.26937321  -1.76536191  -1.83136750 
H   -1.11375885  -0.20753162  -3.15926028 
H    2.87630584  -0.74831424  -1.55546355 
H    1.35524625  -2.76832646  -0.69079272 
H   -1.08064562  -2.47790200  -1.76189326 
C   -2.42105850  -1.59259732   1.34919826 
H   -2.51213125  -1.41499085   2.42438270 
H   -2.87829159  -2.55046384   1.08662577 
H   -2.85846720  -0.77626594   0.77351512 
C   -1.81878230   1.68295039  -0.69632687 
H   -1.37898364  -1.69207817   1.11743569 
H   -1.45166261   2.50701912  -1.31250160 
H   -2.39822686   2.17335485   0.08242701 
H   -2.56371621   1.20142307  -1.32508504 
*
