! EnGrad PBEh-3c
%output 
xyzfile=True 
end 
%scf 
maxiter 250 
end
%output
Print[P_Hirshfeld] = 1
end
% maxcore
4000
*xyz 0 1
Lu   0.05889331   0.37931278  -0.20377517 
C    0.38070982   0.99134688   2.39354396 
C    1.32905105  -0.03151638   2.18408549 
C    2.29306875   0.46302850   1.27709723 
C    1.92363661   1.77575938   0.91396955 
C    0.74476758   2.11085886   1.62323466 
H    2.49593410   2.44386126   0.28612301 
H    0.20862417   3.04197634   1.57025372 
H   -0.44253855   0.95332303   3.09845093 
H    1.36794210  -0.98007592   2.69163609 
H    3.17352986  -0.06479119   0.95267486 
C    1.02303322  -0.03316379  -2.55657388 
C   -0.27125679  -0.60265441  -2.62344746 
C    1.02343003  -1.93724276  -1.28581999 
C    1.82469654  -0.86639110  -1.74766669 
H    1.35656489   0.83666054  -3.10270600 
C   -0.26847560  -1.76645839  -1.83204275 
H   -1.11395768  -0.20820663  -3.16209159 
H    2.87701432  -0.74644908  -1.55433264 
H    1.35592554  -2.76688389  -0.68900693 
H   -1.07973738  -2.47711839  -1.75577523 
C   -2.42770291  -1.59044713   1.34885143 
H   -2.51191358  -1.41279286   2.43220300 
H   -2.87403245  -2.55909555   1.08468154 
H   -2.88117225  -0.77178940   0.77468580 
C   -1.81750531   1.68439440  -0.70002426 
H   -1.37577441  -1.68333051   1.10982287 
H   -1.44835707   2.50978232  -1.31586466 
H   -2.39141607   2.16849427   0.09120505 
H   -2.56128873   1.19418627  -1.32832629 
*
