! EnGrad PBEh-3c
%output 
xyzfile=True 
end 
%scf 
maxiter 250 
end
%output
Print[P_Hirshfeld] = 1
end
% maxcore
4000
*xyz 0 1
Lu   0.09450657   0.36280263  -0.19945624 
C    0.37012660   0.99006805   2.39030890 
C    1.32935902  -0.02668893   2.16858749 
C    2.28251728   0.45565836   1.25790086 
C    1.92835079   1.78122665   0.92063528 
C    0.73765263   2.10119346   1.61169176 
H    2.49467169   2.44284803   0.28216999 
H    0.21231397   3.04581302   1.57675618 
H   -0.44221920   0.94549823   3.09544332 
H    1.36324379  -0.98470297   2.67234865 
H    3.17651549  -0.06217805   0.94896198 
C    1.02198874  -0.03900402  -2.56519879 
C   -0.27538502  -0.59060513  -2.60427200 
C    1.02165810  -1.91715016  -1.27764695 
C    1.82198611  -0.85656424  -1.73489926 
H    1.35704663   0.83829625  -3.09976297 
C   -0.26969293  -1.76641704  -1.83128874 
H   -1.11314033  -0.21049827  -3.16955951 
H    2.87726942  -0.73967375  -1.55041934 
H    1.35644988  -2.75772800  -0.68534581 
H   -1.07754131  -2.47323085  -1.73536085 
C   -2.45249663  -1.58465321   1.35286572 
H   -2.51091389  -1.41007285   2.43404489 
H   -2.85583675  -2.56861628   1.08422962 
H   -2.94431728  -0.77387592   0.78885834 
C   -1.80807975   1.68331406  -0.70781447 
H   -1.37475812  -1.65184585   1.08727614 
H   -1.43912515   2.52054735  -1.32744603 
H   -2.36819022   2.15220570   0.11661816 
H   -2.55321756   1.17269147  -1.33789024 
*
