! EnGrad PBEh-3c
%output 
xyzfile=True 
end 
%scf 
maxiter 250 
end
%output
Print[P_Hirshfeld] = 1
end
% maxcore
4000
*xyz 0 1
Lu   0.11638306   0.34690907  -0.19639887 
C    0.37210772   0.98354442   2.37850573 
C    1.32102968  -0.02580228   2.15810320 
C    2.27865864   0.45971377   1.25036673 
C    1.92693024   1.77864686   0.92154238 
C    0.73323317   2.10063046   1.60602954 
H    2.49396337   2.44384558   0.27871967 
H    0.21592242   3.04782034   1.58114123 
H   -0.44800261   0.93968750   3.09291598 
H    1.35939007  -0.98809243   2.65738196 
H    3.17786988  -0.06212810   0.94321016 
C    1.02293614  -0.03983071  -2.56285608 
C   -0.27857640  -0.58725522  -2.59698209 
C    1.01324670  -1.90393824  -1.27445293 
C    1.81882312  -0.84953604  -1.73373601 
H    1.35697986   0.84010729  -3.09907807 
C   -0.26254986  -1.75789773  -1.82232977 
H   -1.11222846  -0.21146213  -3.17411007 
H    2.87834238  -0.73268409  -1.54625211 
H    1.35840085  -2.75182358  -0.67878374 
H   -1.08104014  -2.46946313  -1.71934845 
C   -2.45936150  -1.58041336   1.34729102 
H   -2.51427154  -1.41053292   2.42532410 
H   -2.84830885  -2.56221246   1.08908251 
H   -2.98113452  -0.79241429   0.80945931 
C   -1.79807630   1.68158684  -0.71352121 
H   -1.38187433  -1.62363025   1.07412466 
H   -1.43757763   2.52440625  -1.33133414 
H   -2.34770497   2.13848840   0.12741030 
H   -2.54316010   1.16241312  -1.34004411 
*
