! EnGrad PBEh-3c
%output 
xyzfile=True 
end 
%scf 
maxiter 250 
end
%output
Print[P_Hirshfeld] = 1
end
% maxcore
4000
*xyz 0 1
Pd   0.73772456   0.62185301  -0.57486161 
O    2.34226092   1.63218752   0.15864824 
C    1.67434265   2.71610058   0.22064212 
O    0.44303712   2.65433633  -0.04870176 
C    2.39441875   4.00547707   0.53629819 
H    1.74960545   4.72103728   1.02695088 
H    2.73186947   4.45417078  -0.39583030 
H    3.27768730   3.83049831   1.14372959 
N   -1.16486253  -0.17057625  -1.13863167 
C   -1.21532360  -0.73631985  -2.50665418 
H   -0.91819275   0.01632756  -3.23354847 
H   -2.24949140  -1.04723940  -2.73307218 
H   -0.56091921  -1.59234736  -2.61254829 
C   -2.10708470   0.94987153  -1.08496693 
H   -2.08900506   1.41575599  -0.11017617 
H   -3.12551279   0.59501839  -1.29518987 
H   -1.83255083   1.68040163  -1.84392676 
C   -1.46027431  -1.00576894   1.25644642 
C   -0.39332189  -1.51826648   1.92894623 
C   -0.25904614  -1.42853737   3.29416179 
C   -1.25889687  -0.89215874   4.06209578 
C   -2.39439357  -0.40509467   3.48847402 
C   -2.39569280  -0.41223011   2.12008992 
H   -1.19109999  -0.83550789   5.10863806 
H   -3.26741811  -0.09296416   4.04551680 
H    0.31560448  -2.00462928   1.34798432 
H    0.62449496  -1.83585228   3.76789078 
H   -3.17817154   0.09976102   1.65315921 
C   -1.62654313  -1.23221231  -0.19574561 
H   -2.65520311  -1.49751840  -0.46301292 
H   -1.01504798  -2.10281511  -0.40823341 
O    1.67487299  -1.04404295  -1.07105625 
C    2.25746584  -0.91523088  -2.23834331 
O    1.99597062  -0.03601366  -3.03906315 
C    3.32339699  -1.96417116  -2.49850089 
H    2.99154555  -2.96767239  -2.26081855 
H    4.19883402  -1.76384225  -1.88536160 
H    3.62016580  -1.91663178  -3.54775353 
*
