! EnGrad PBEh-3c
%output 
xyzfile=True 
end 
%scf 
maxiter 250 
end
%output
Print[P_Hirshfeld] = 1
end
% maxcore
4000
*xyz 0 1
Pd   0.73698214   0.61605448  -0.57633249 
O    2.34147402   1.62770245   0.14819376 
C    1.67201203   2.70330118   0.22065596 
O    0.43473946   2.64022546  -0.04122690 
C    2.39212295   3.99493579   0.53773374 
H    1.75383383   4.71688654   1.02861206 
H    2.73439574   4.44159927  -0.39352202 
H    3.27568764   3.81547260   1.14491673 
N   -1.17027836  -0.17298845  -1.14015079 
C   -1.21406871  -0.75269403  -2.50197879 
H   -0.91363129  -0.01022793  -3.23655149 
H   -2.24537957  -1.06499680  -2.72691808 
H   -0.55755144  -1.61052177  -2.59656656 
C   -2.11048555   0.94782907  -1.09829501 
H   -2.09383839   1.41793531  -0.12369495 
H   -3.12644190   0.58989308  -1.30457970 
H   -1.83484611   1.67064766  -1.86197435 
C   -1.45520113  -1.00599038   1.26759107 
C   -0.40043505  -1.52843006   1.93226415 
C   -0.27108628  -1.43489462   3.29607936 
C   -1.25905781  -0.89804315   4.07706024 
C   -2.38863482  -0.39099150   3.51024943 
C   -2.36005037  -0.40795046   2.13883923 
H   -1.20004111  -0.84257758   5.11847936 
H   -3.27242152  -0.05201233   4.04823001 
H    0.29120572  -2.00634364   1.33173804 
H    0.60506567  -1.83908293   3.75575692 
H   -3.11195095   0.13098895   1.64385299 
C   -1.64048828  -1.22622723  -0.19547740 
H   -2.67087114  -1.48742138  -0.47362069 
H   -1.02989150  -2.09442573  -0.38808385 
O    1.67427474  -1.04623956  -1.07820367 
C    2.25481248  -0.90698376  -2.24309624 
O    1.98634192  -0.02802004  -3.04160819 
C    3.33101162  -1.94709216  -2.50511197 
H    3.00853310  -2.95504669  -2.26657871 
H    4.20256624  -1.74158342  -1.88750652 
H    3.62603727  -1.89376029  -3.55186127 
*
