! EnGrad PBEh-3c
%output 
xyzfile=True 
end 
%scf 
maxiter 250 
end
%output
Print[P_Hirshfeld] = 1
end
% maxcore
4000
*xyz 0 1
Pd   0.73719083   0.62277741  -0.57468407 
O    2.33971728   1.63663698   0.16141166 
C    1.67789861   2.71843988   0.22107394 
O    0.44650801   2.65806506  -0.05036866 
C    2.39380997   4.00577719   0.53509105 
H    1.74777808   4.72281350   1.02701389 
H    2.73139201   4.45788286  -0.39708065 
H    3.27858623   3.83435082   1.14379615 
N   -1.16187697  -0.17071269  -1.13639285 
C   -1.21771134  -0.73107885  -2.50789564 
H   -0.91916715   0.02380968  -3.23296709 
H   -2.25016558  -1.04266773  -2.73496911 
H   -0.56117225  -1.58825598  -2.61658996 
C   -2.10650859   0.94958062  -1.08323293 
H   -2.08765823   1.41583892  -0.10548152 
H   -3.12559605   0.59660866  -1.29275011 
H   -1.83204191   1.68348193  -1.83896848 
C   -1.47338497  -0.99827932   1.26444425 
C   -0.39431142  -1.51355492   1.92789851 
C   -0.25221485  -1.42877424   3.29430000 
C   -1.26128517  -0.88967704   4.05842371 
C   -2.39722886  -0.40880879   3.47494319 
C   -2.40730802  -0.41251952   2.10570551 
H   -1.18641391  -0.83435827   5.11106790 
H   -3.26484931  -0.10388672   4.04583753 
H    0.33010617  -2.00928987   1.35017858 
H    0.63197571  -1.83613337   3.77290304 
H   -3.19516798   0.09090905   1.65737444 
C   -1.62030974  -1.23420924  -0.19834037 
H   -2.65078501  -1.50007352  -0.45851807 
H   -1.01081614  -2.10659926  -0.41561503 
O    1.67576473  -1.04295073  -1.07122641 
C    2.25695506  -0.91743192  -2.23530181 
O    1.99917772  -0.03951940  -3.03752935 
C    3.32087887  -1.96662534  -2.49912264 
H    2.98637363  -2.97221989  -2.25898917 
H    4.19867346  -1.76951777  -1.88424907 
H    3.61871300  -1.92308633  -3.54587128 
*
