! EnGrad PBEh-3c
%output 
xyzfile=True 
end 
%scf 
maxiter 250 
end
%output
Print[P_Hirshfeld] = 1
end
% maxcore
4000
*xyz 0 1
Pd   0.73350092   0.60952918  -0.57626829 
O    2.33908637   1.61799030   0.13305105 
C    1.66814146   2.68930560   0.22087792 
O    0.42888999   2.62471046  -0.02822919 
C    2.38787177   3.97830121   0.53875424 
H    1.75608972   4.71059157   1.03211934 
H    2.73791798   4.42353400  -0.39326663 
H    3.27174263   3.79213396   1.14690279 
N   -1.17804391  -0.17860323  -1.14406785 
C   -1.21305143  -0.77524728  -2.49478638 
H   -0.90694917  -0.04775559  -3.23770856 
H   -2.23726371  -1.09175565  -2.71890011 
H   -0.55527462  -1.63484508  -2.57148161 
C   -2.11596642   0.94399253  -1.11685728 
H   -2.10208575   1.42365641  -0.14465638 
H   -3.12768836   0.58263319  -1.31957816 
H   -1.83892000   1.65854293  -1.88536622 
C   -1.44879469  -0.99220318   1.28946221 
C   -0.39047630  -1.55380344   1.94204868 
C   -0.27776933  -1.45032783   3.30873447 
C   -1.25629116  -0.90922362   4.10730513 
C   -2.37700603  -0.37316049   3.52131816 
C   -2.36532909  -0.37218174   2.13530452 
H   -1.19887898  -0.85892226   5.16560894 
H   -3.26011907   0.00594610   4.04646481 
H    0.29542100  -2.03518061   1.30387253 
H    0.59003276  -1.85189253   3.74865588 
H   -3.09134041   0.20348102   1.61286950 
C   -1.65010920  -1.21907324  -0.19125264 
H   -2.68941067  -1.47148369  -0.47593599 
H   -1.04847907  -2.09642140  -0.37244779 
O    1.67070472  -1.04928455  -1.08755544 
C    2.25156883  -0.89782885  -2.24755698 
O    1.97522085  -0.02107889  -3.04521168 
C    3.34085836  -1.92034097  -2.51597118 
H    3.03057483  -2.93476987  -2.27653941 
H    4.20797959  -1.70715468  -1.89179287 
H    3.63763634  -1.86252162  -3.55997660 
*
