! EnGrad PBEh-3c
%output 
xyzfile=True 
end 
%scf 
maxiter 250 
end
%output
Print[P_Hirshfeld] = 1
end
% maxcore
4000
*xyz 0 1
Pd   0.73743807   0.65130461  -0.56528763 
O    2.34867290   1.65046232   0.19654522 
C    1.68709744   2.76273147   0.21693720 
O    0.48233998   2.72076567  -0.07367187 
C    2.40045709   4.05034650   0.52746868 
H    1.72152625   4.74022716   1.02366085 
H    2.71939289   4.50636131  -0.41160762 
H    3.28153606   3.88829618   1.13823720 
N   -1.15437912  -0.16085121  -1.13976938 
C   -1.22423827  -0.65863386  -2.52127457 
H   -0.93714279   0.12628726  -3.21010825 
H   -2.25080805  -0.96921111  -2.75724311 
H   -0.57938502  -1.50765445  -2.67559428 
C   -2.09596292   0.96053466  -1.03017236 
H   -2.07171720   1.41200264  -0.05257220 
H   -3.11195512   0.62011452  -1.25410218 
H   -1.82738490   1.72578158  -1.75576608 
C   -1.42161273  -0.99468225   1.24031858 
C   -0.30274734  -1.50857758   1.93586963 
C   -0.18943798  -1.41377944   3.30717102 
C   -1.21694856  -0.88121190   4.04322055 
C   -2.39129389  -0.49025025   3.40396757 
C   -2.56314959  -0.41999954   2.00347408 
H   -1.13841304  -0.81631005   5.12694153 
H   -3.23341137  -0.24597533   4.02569250 
H    0.47674473  -2.02935289   1.39490150 
H    0.68556229  -1.80949181   3.80563004 
H   -3.69715179   0.04408409   1.59173141 
C   -1.54998738  -1.27017777  -0.21961510 
H   -2.59422161  -1.53771490  -0.41416450 
H   -0.95045037  -2.14903051  -0.50508130 
O    1.66960855  -1.03754225  -1.03877869 
C    2.26384023  -0.94520627  -2.21368397 
O    2.04615205  -0.08667671  -3.02302122 
C    3.29167027  -2.03485873  -2.47864725 
H    2.91243141  -3.01761004  -2.23610542 
H    4.17829721  -1.85627898  -1.87703046 
H    3.59844544  -2.02000589  -3.53050806 
*
