! EnGrad PBEh-3c
%output 
xyzfile=True 
end 
%scf 
maxiter 250 
end
%output
Print[P_Hirshfeld] = 1
end
% maxcore
4000
*xyz 0 1
Pd   0.73971199   0.65081628  -0.56473590 
O    2.34464963   1.65315464   0.19572140 
C    1.69335422   2.75774507   0.21823069 
O    0.47743133   2.71980181  -0.07422111 
C    2.39955707   4.04891364   0.52736825 
H    1.72250268   4.74021070   1.02386265 
H    2.72001174   4.50542455  -0.41133418 
H    3.28218838   3.88692908   1.13881407 
N   -1.15467632  -0.16103825  -1.13985350 
C   -1.22537052  -0.66071971  -2.52169263 
H   -0.93671622   0.12367220  -3.21089712 
H   -2.25091868  -0.97117317  -2.75649262 
H   -0.57827189  -1.51085618  -2.67422421 
C   -2.09653742   0.95994229  -1.03309938 
H   -2.07194024   1.41235504  -0.05311288 
H   -3.11244140   0.61934918  -1.25514254 
H   -1.82721030   1.72414145  -1.75830365 
C   -1.42978853  -0.99161073   1.24656391 
C   -0.30753276  -1.50769358   1.93352022 
C   -0.18833360  -1.41417784   3.30831826 
C   -1.21885628  -0.88246723   4.04357776 
C   -2.39343870  -0.48509601   3.40073618 
C   -2.56732755  -0.41913249   2.00266241 
H   -1.13885527  -0.81635416   5.12627190 
H   -3.23409142  -0.24417303   4.02653113 
H    0.47487362  -2.03055420   1.39392480 
H    0.68492946  -1.81109094   3.80560397 
H   -3.67296366   0.04400235   1.59922111 
C   -1.55034399  -1.27004325  -0.22096180 
H   -2.59555055  -1.53667993  -0.41422994 
H   -0.95250114  -2.14805360  -0.50306974 
O    1.67054714  -1.03745672  -1.04128064 
C    2.26383296  -0.94765913  -2.21012609 
O    2.04386916  -0.08204954  -3.02639271 
C    3.29270933  -2.03212825  -2.48044753 
H    2.91436992  -3.01732685  -2.23660745 
H    4.17957602  -1.85383779  -1.87695809 
H    3.59884116  -2.01721978  -3.53020178 
*
