! EnGrad PBEh-3c
%output 
xyzfile=True 
end 
%scf 
maxiter 250 
end
%output
Print[P_Hirshfeld] = 1
end
% maxcore
4000
*xyz 0 1
Pd   0.74657881   0.65174454  -0.56268551 
O    2.33993249   1.65185483   0.19367449 
C    1.69507741   2.75171121   0.21930860 
O    0.47181438   2.71697129  -0.07418588 
C    2.39946577   4.04599407   0.52791698 
H    1.72471542   4.73984089   1.02428221 
H    2.72150508   4.50301772  -0.41064459 
H    3.28352797   3.88392675   1.13998334 
N   -1.15700663  -0.16123621  -1.14314249 
C   -1.22603978  -0.66697067  -2.52344225 
H   -0.93585659   0.11680185  -3.21227378 
H   -2.25164522  -0.97600592  -2.75419472 
H   -0.57618797  -1.51810539  -2.67070036 
C   -2.09819411   0.95957759  -1.03783047 
H   -2.07263577   1.41277735  -0.05579355 
H   -3.11342827   0.61709336  -1.25785314 
H   -1.82641276   1.71974625  -1.76496076 
C   -1.44442110  -0.98715439   1.25480797 
C   -0.31533654  -1.50757260   1.93216703 
C   -0.18708543  -1.41356778   3.30979426 
C   -1.22256631  -0.88776659   4.04305644 
C   -2.39558089  -0.47138465   3.39709804 
C   -2.59027413  -0.41383171   2.00128697 
H   -1.13992469  -0.81608538   5.12545858 
H   -3.23538565  -0.24035021   4.02689087 
H    0.46958425  -2.03338812   1.39143106 
H    0.68343200  -1.81540645   3.80547672 
H   -3.61231333   0.04516226   1.61757749 
C   -1.55306352  -1.26780068  -0.22062275 
H   -2.59855358  -1.53400685  -0.41442212 
H   -0.95690389  -2.14680049  -0.49819113 
O    1.67190313  -1.03860235  -1.04479824 
C    2.26335479  -0.94653791  -2.21041998 
O    2.03926749  -0.07597323  -3.02923816 
C    3.29557276  -2.02754401  -2.48212383 
H    2.91985729  -3.01559625  -2.23832269 
H    4.18234272  -1.84776368  -1.87730509 
H    3.59989497  -2.00977644  -3.53053260 
*
