! EnGrad PBEh-3c
%output 
xyzfile=True 
end 
%scf 
maxiter 250 
end
%output
Print[P_Hirshfeld] = 1
end
% maxcore
4000
*xyz 0 1
Pd   0.73463781   0.62850213  -0.57429349 
O    2.33381860   1.65242697   0.17848700 
C    1.68714402   2.73920243   0.22253511 
O    0.46523536   2.67822038  -0.06127310 
C    2.39412021   4.01348430   0.53062254 
H    1.74027775   4.73100152   1.02548188 
H    2.72821858   4.47858257  -0.40179108 
H    3.28320383   3.85806911   1.14304879 
N   -1.14592711  -0.16964551  -1.12634553 
C   -1.22514197  -0.70384228  -2.51533687 
H   -0.92544701   0.06680301  -3.23068954 
H   -2.25766988  -1.01609511  -2.74586993 
H   -0.56396899  -1.56307371  -2.64128999 
C   -2.10161821   0.94971612  -1.06732102 
H   -2.07960473   1.41362599  -0.08140141 
H   -3.12678715   0.60489470  -1.27858211 
H   -1.82830931   1.70003099  -1.81210955 
C   -1.52697494  -0.97569657   1.27825273 
C   -0.40166529  -1.48601035   1.91969340 
C   -0.22617283  -1.42359550   3.28930776 
C   -1.27610818  -0.87414096   4.02860296 
C   -2.41205106  -0.42929012   3.42061478 
C   -2.46553244  -0.41692067   2.04661514 
H   -1.16766052  -0.82447377   5.10355944 
H   -3.25522062  -0.16924095   4.04619978 
H    0.38452571  -2.01766532   1.37155317 
H    0.67280806  -1.83634541   3.79937649 
H   -3.26000830   0.02684250   1.69149370 
C   -1.59427524  -1.24210898  -0.20269223 
H   -2.62486077  -1.51575806  -0.43783381 
H   -0.98667666  -2.12311961  -0.45167414 
O    1.67989294  -1.03732790  -1.06650303 
C    2.25812059  -0.93063329  -2.22394396 
O    2.01513253  -0.05476015  -3.03081434 
C    3.30694132  -1.98669240  -2.49475742 
H    2.95892797  -2.99580472  -2.24914501 
H    4.19596330  -1.80362528  -1.87911650 
H    3.60959672  -1.95897868  -3.53734350 
*
