! EnGrad PBEh-3c
%output 
xyzfile=True 
end 
%scf 
maxiter 250 
end
%output
Print[P_Hirshfeld] = 1
end
% maxcore
4000
*xyz 0 1
Pd   0.73920784   0.63740160  -0.56977450 
O    2.33327217   1.65631388   0.18527090 
C    1.69452503   2.74190393   0.22180649 
O    0.46775320   2.69445173  -0.06692975 
C    2.39552496   4.02560991   0.52897887 
H    1.73380204   4.73516605   1.02519143 
H    2.72564912   4.48908785  -0.40563927 
H    3.28385137   3.86896624   1.14208192 
N   -1.14915365  -0.16662872  -1.13141957 
C   -1.22730216  -0.68801646  -2.51881995 
H   -0.92969378   0.08797243  -3.22358905 
H   -2.25526343  -0.99953488  -2.74961055 
H   -0.56840319  -1.54529204  -2.65374528 
C   -2.10026302   0.95301937  -1.05685200 
H   -2.07646446   1.41357460  -0.06978940 
H   -3.12163642   0.61005970  -1.26997456 
H   -1.82748097   1.70828760  -1.79265619 
C   -1.50278259  -0.97577607   1.27567690 
C   -0.37007555  -1.49258269   1.92231825 
C   -0.20810993  -1.42023093   3.29849570 
C   -1.25575857  -0.87877521   4.03373463 
C   -2.40859231  -0.44574535   3.40412068 
C   -2.50789890  -0.41981090   2.02728529 
H   -1.15540300  -0.82090141   5.11281168 
H   -3.24699978  -0.19986637   4.03962930 
H    0.42215878  -2.02583816   1.37982597 
H    0.67877048  -1.82848504   3.80316691 
H   -3.40503138   0.03503225   1.66299242 
C   -1.57546111  -1.25363957  -0.21246648 
H   -2.61372356  -1.52344540  -0.42717206 
H   -0.97457385  -2.13301837  -0.47164822 
O    1.67767825  -1.03732398  -1.05931180 
C    2.25913830  -0.93683875  -2.21700159 
O    2.02548696  -0.06447448  -3.02943635 
C    3.30212743  -2.00225801  -2.49147553 
H    2.94240764  -3.00513132  -2.24438827 
H    4.19107528  -1.82196690  -1.87792835 
H    3.60543649  -1.98021628  -3.53361752 
*
