! EnGrad PBEh-3c
%output 
xyzfile=True 
end 
%scf 
maxiter 250 
end
%output
Print[P_Hirshfeld] = 1
end
% maxcore
4000
*xyz 1 1
Ir   0.52957186  -0.75043308   0.69375630 
C   -0.03695912  -2.84247349   1.33259474 
C    0.37886347  -2.12836690   2.45331301 
C    2.09664963  -2.16651758   0.93815826 
C    0.96332771  -2.85328221   0.34845282 
C    1.77336174  -1.75634774   2.21157845 
N   -1.05948746  -0.07537692  -0.47294086 
C   -2.48151899  -0.05495564   0.02936155 
C   -2.85771929   1.28482212   0.63007241 
H   -3.89596176   1.26151809   0.97473654 
H   -2.77296813   2.08686802  -0.10334283 
H   -2.27249666   1.50663208   1.50533650 
C   -3.49263153  -0.47907688  -1.02727445 
H   -2.49941929  -0.78235124   0.81243938 
H   -4.46833106  -0.61422287  -0.52764775 
H   -3.65625587   0.27121074  -1.79521217 
H   -3.23974980  -1.42165398  -1.48492221 
C   -0.81756686   0.25195201  -1.70190636 
C    0.49057911   0.20121141  -2.30074269 
H   -1.62113454   0.52677029  -2.33685736 
C    1.68180972  -0.02622467  -1.54250576 
C    2.78124975  -0.12154847  -2.50104965 
S    0.74203825   0.24080940  -4.00224504 
C    2.41885473   0.01438202  -3.81358514 
H    2.17724708   1.16648169  -0.76530266 
H    3.81402891  -0.18980452  -2.20801192 
H    3.07154584  -0.05647420  -4.67157480 
H   -0.87973463  -3.53080391   1.32639403 
H   -0.13180214  -2.03373065   3.41321464 
H    2.42700272  -1.36323277   2.94838135 
O    1.96755292   2.01356983   0.43003904 
O    0.24899245   1.10260239   1.62202390 
C    1.09180245   2.10273791   1.22957252 
C    0.86466323   3.46146790   1.97257244 
H    0.86813820   4.24286690   1.21998541 
H    1.74510862   3.63439102   2.60412582 
H   -0.01520574   3.51173625   2.57600514 
H    3.10397515  -2.18012902   0.52398079 
H    0.96277712  -3.45481574  -0.54008404 
*
