! EnGrad PBEh-3c
%output 
xyzfile=True 
end 
%scf 
maxiter 250 
end
%output
Print[P_Hirshfeld] = 1
end
% maxcore
4000
*xyz 1 1
Ir   0.53349433  -0.74861537   0.69153423 
C   -0.04192547  -2.85163184   1.33098384 
C    0.38856198  -2.12163299   2.45735993 
C    2.10268496  -2.17816195   0.93085409 
C    0.96645286  -2.85238731   0.35092083 
C    1.76505115  -1.75615915   2.21586709 
N   -1.06007868  -0.07617585  -0.47847985 
C   -2.48039416  -0.05220890   0.02601360 
C   -2.85942344   1.28658428   0.62952984 
H   -3.89573483   1.26109812   0.97171241 
H   -2.77272628   2.08781520  -0.10433492 
H   -2.26949813   1.51023085   1.50516246 
C   -3.49534308  -0.47910001  -1.02416780 
H   -2.49857031  -0.78540847   0.81637824 
H   -4.46481412  -0.61408165  -0.52876589 
H   -3.65575520   0.27082605  -1.79655904 
H   -3.23825984  -1.42468792  -1.48610813 
C   -0.81531031   0.25023355  -1.69779895 
C    0.49755718   0.19747896  -2.29348044 
H   -1.62706980   0.52909488  -2.33994139 
C    1.68451125  -0.00561785  -1.53940218 
C    2.77672132  -0.12213171  -2.49666593 
S    0.74047858   0.23976861  -3.99990259 
C    2.41792556   0.01221243  -3.81196148 
H    2.15977982   1.15073090  -0.75742487 
H    3.81544672  -0.19028639  -2.20763068 
H    3.07085621  -0.05544761  -4.67226388 
H   -0.88405654  -3.52353335   1.32554435 
H   -0.12953463  -2.03196534   3.41070745 
H    2.43191852  -1.35827817   2.94881612 
O    1.98721494   2.01436476   0.40862370 
O    0.26257572   1.11303823   1.61289473 
C    1.06428084   2.09378742   1.25465823 
C    0.87183314   3.45332552   1.96742895 
H    0.86729059   4.24359155   1.22038306 
H    1.74322613   3.63372949   2.60429629 
H   -0.01974197   3.51068378   2.57842458 
H    3.10040733  -2.17707749   0.52055182 
H    0.96025782  -3.45383050  -0.54261401 
*
