! EnGrad PBEh-3c
%output 
xyzfile=True 
end 
%scf 
maxiter 250 
end
%output
Print[P_Hirshfeld] = 1
end
% maxcore
4000
*xyz 1 1
Ir   0.57071064  -0.75867703   0.66896775 
C   -0.03655427  -2.87643094   1.34035427 
C    0.41522606  -2.10213799   2.45656826 
C    2.12597818  -2.24332753   0.93482882 
C    0.98161545  -2.87312295   0.35508791 
C    1.76754851  -1.75006062   2.22022944 
N   -1.06544302  -0.08837720  -0.49774828 
C   -2.46840460  -0.05278854   0.02087267 
C   -2.85506374   1.29752697   0.62831030 
H   -3.89733849   1.25501057   0.94971512 
H   -2.76983063   2.09807010  -0.10755152 
H   -2.24662665   1.53883567   1.49972554 
C   -3.49617779  -0.48418932  -1.02241730 
H   -2.48947726  -0.79739867   0.83023839 
H   -4.45211249  -0.61466305  -0.52952122 
H   -3.65302723   0.26542131  -1.80275664 
H   -3.23101892  -1.43634248  -1.49260240 
C   -0.81603542   0.24625367  -1.70358911 
C    0.52037936   0.19274441  -2.24114556 
H   -1.65181701   0.54221271  -2.35403197 
C    1.70579021   0.15006785  -1.52094427 
C    2.76626308  -0.11016805  -2.46056133 
S    0.72992349   0.22072196  -3.95557166 
C    2.41086452  -0.01339167  -3.78282444 
H    1.97845477   1.01285978  -0.64974250 
H    3.81275269  -0.19725023  -2.20123242 
H    3.05733578  -0.04657015  -4.66264309 
H   -0.94469384  -3.46221175   1.30593572 
H   -0.11817645  -2.00691417   3.38845411 
H    2.45234081  -1.31410175   2.94122561 
O    1.98308847   2.03044563   0.37514900 
O    0.32967342   1.12361531   1.55233487 
C    1.08346381   2.08898888   1.24733075 
C    0.88525803   3.40412789   1.95059751 
H    0.86351091   4.22910672   1.22583959 
H    1.73385586   3.62231873   2.60196721 
H   -0.02237217   3.49282759   2.57335103 
H    3.09417920  -2.14690495   0.48485062 
H    0.94703017  -3.43638160  -0.56341756 
*
