! EnGrad PBEh-3c
%output 
xyzfile=True 
end 
%scf 
maxiter 250 
end
%output
Print[P_Hirshfeld] = 1
end
% maxcore
4000
*xyz 1 1
Ir   0.58252776  -0.78472380   0.67400849 
C   -0.02802241  -2.87566780   1.33602263 
C    0.42010794  -2.09688286   2.43829621 
C    2.14331228  -2.26354068   0.94857180 
C    0.99334544  -2.90675879   0.36176194 
C    1.79827917  -1.74946430   2.21081750 
N   -1.06594160  -0.10305110  -0.49643695 
C   -2.45908738  -0.06160049   0.02567123 
C   -2.84136893   1.29733851   0.62679528 
H   -3.89175602   1.24930368   0.93586020 
H   -2.76536180   2.10439742  -0.10605552 
H   -2.23194409   1.55844299   1.49121021 
C   -3.48647523  -0.48916437  -1.02584962 
H   -2.48036253  -0.79903748   0.82896092 
H   -4.44921758  -0.61689170  -0.52754438 
H   -3.65057614   0.26021262  -1.80385586 
H   -3.22839061  -1.43776570  -1.49726128 
C   -0.83193508   0.25059252  -1.70675294 
C    0.51048776   0.22652032  -2.21833882 
H   -1.65170378   0.54733791  -2.36019960 
C    1.70647995   0.22326371  -1.52408859 
C    2.77553217  -0.07001948  -2.43236768 
S    0.72392231   0.18843002  -3.91095107 
C    2.40341827  -0.03616173  -3.74942534 
H    1.83212791   0.88888112  -0.56181863 
H    3.81130522  -0.20161509  -2.18417482 
H    3.03663452  -0.04562328  -4.63329902 
H   -0.98910855  -3.39306041   1.27982351 
H   -0.11949016  -1.97381109   3.36965599 
H    2.45494847  -1.27383822   2.92682673 
O    1.98537196   2.06060278   0.36216915 
O    0.36846754   1.09025583   1.50815701 
C    1.11805404   2.10502850   1.21027977 
C    0.88216660   3.39978865   1.95244967 
H    0.86254423   4.20620047   1.23011268 
H    1.73144625   3.60777489   2.59777404 
H   -0.01064489   3.46010378   2.55466063 
H    3.09775710  -2.12429238   0.45877326 
H    0.94533648  -3.42214305  -0.58335808 
*
