! EnGrad PBEh-3c
%output 
xyzfile=True 
end 
%scf 
maxiter 250 
end
%output
Print[P_Hirshfeld] = 1
end
% maxcore
4000
*xyz 1 1
Ir   0.56447423  -0.83043582   0.70384658 
C   -0.02790627  -2.85177272   1.30216297 
C    0.43045761  -2.08195632   2.42071866 
C    2.16053393  -2.25654470   0.93399661 
C    1.02562451  -2.94809181   0.37000433 
C    1.81365186  -1.76026578   2.20822001 
N   -1.06767983  -0.12491373  -0.47812349 
C   -2.45192618  -0.06946519   0.02587848 
C   -2.82269939   1.28766981   0.62163433 
H   -3.86794961   1.24204133   0.93055712 
H   -2.75439045   2.10132573  -0.10088415 
H   -2.21927928   1.56872467   1.48122884 
C   -3.48117718  -0.49171896  -1.02090170 
H   -2.47185785  -0.80423312   0.82586818 
H   -4.44419602  -0.62163246  -0.52831293 
H   -3.64493706   0.25627813  -1.79828945 
H   -3.22717162  -1.43439588  -1.50462769 
C   -0.84269567   0.26362774  -1.68439986 
C    0.47853922   0.29494455  -2.22026155 
H   -1.64272584   0.54829753  -2.36012853 
C    1.66376527   0.21597870  -1.51370157 
C    2.78130732   0.00267188  -2.39101249 
S    0.71404333   0.13626936  -3.89522873 
C    2.38636969  -0.04719819  -3.69968846 
H    1.71047023   0.74618222  -0.49339276 
H    3.81758496  -0.19280355  -2.13504485 
H    3.00826856  -0.06301121  -4.57680926 
H   -1.01917490  -3.28862559   1.23130980 
H   -0.13182484  -1.91795914   3.33132794 
H    2.44467570  -1.22044800   2.90237015 
O    2.01171232   2.11804155   0.34725815 
O    0.41336045   1.05662581   1.46996675 
C    1.14385605   2.11144987   1.16960048 
C    0.88827987   3.38939239   1.94612482 
H    0.86138427   4.19484156   1.21994258 
H    1.74199335   3.58719747   2.59596796 
H   -0.01450086   3.40169784   2.53827775 
H    3.11176017  -2.10736255   0.44186857 
H    0.96294505  -3.41031846  -0.60449343 
*
