! EnGrad PBEh-3c
%output 
xyzfile=True 
end 
%scf 
maxiter 250 
end
%output
Print[P_Hirshfeld] = 1
end
% maxcore
4000
*xyz -1 1
C   -1.82447378   0.06515533   0.53970455 
C   -1.60629963   1.07530504   1.47997522 
C   -3.09706304  -0.01590030  -0.02898647 
C   -4.14085039   0.82708263   0.31164435 
C   -3.88076286   1.89716608   1.14668955 
C   -2.61533454   2.02452676   1.69167834 
H   -1.93123842  -2.87380784  -2.30160888 
H   -3.35552539  -0.81289850  -0.71128463 
H   -2.50677887   2.77848091   2.46836508 
H   -5.13095541   0.67848485  -0.10592313 
H   -4.67147235   2.59174832   1.40600618 
C   -0.43626082   1.16282875   2.42369567 
C    0.82747317   0.32738881   2.25653717 
H   -0.80824902   1.00082212   3.44715569 
H   -0.11415357   2.21227027   2.45458228 
C    1.60888124   0.73375602   1.04301101 
H    0.55581700  -0.72945090   2.23840675 
H    1.44555137   0.43962847   3.15671415 
C    1.31725748   0.15735063  -0.19731388 
C    2.19512276   0.46198775  -1.23680120 
C    3.24374836   1.36710431  -1.11431467 
C    2.76394124   1.49787778   1.20826642 
C    3.44622664   1.98935781   0.10465830 
H    2.14530237  -0.07578178  -2.17611810 
H    3.89897973   1.57581605  -1.95224614 
H    3.06471516   1.82524017   2.19887001 
H    4.21109834   2.74884821   0.20895510 
Pd  -0.00882892  -1.29530625  -0.33880547 
Br  -1.62158349  -3.54917473   0.10270348 
P    1.48785163  -2.98072390  -0.27664563 
H    1.62619685  -3.72623078   0.91376448 
C    0.02181570  -1.69062319  -3.70626344 
O    1.12868870  -1.74676397  -4.17754855 
O   -0.59586767  -2.76644347  -3.31119660 
O   -0.73549071  -0.58711755  -3.70019556 
H    2.86343769  -2.70527921  -0.41125565 
H    1.41330951  -4.06411231  -1.16420673 
H   -0.18425074   0.18138393  -3.89065955 
*
