! EnGrad PBEh-3c
%output 
xyzfile=True 
end 
%scf 
maxiter 250 
end
%output
Print[P_Hirshfeld] = 1
end
% maxcore
4000
*xyz -1 1
C   -1.82196472   0.04840549   0.50482872 
C   -1.63245559   1.09114793   1.42509617 
C   -3.17180412  -0.16759529   0.12272013 
C   -4.21615706   0.66449349   0.51957223 
C   -3.96980688   1.77102712   1.31402523 
C   -2.68369367   1.95129132   1.76486693 
H   -1.39289165  -2.27985948  -2.53387979 
H   -3.44484109  -1.07964305  -0.40286174 
H   -2.44492113   2.80026486   2.38825440 
H   -5.22930538   0.45132959   0.20597598 
H   -4.74779170   2.47283840   1.57658207 
C   -0.39078657   1.33062208   2.26172924 
C    0.79790048   0.39058662   2.18486215 
H   -0.74029980   1.29235796   3.28960980 
H   -0.05561152   2.35397238   2.09515650 
C    1.66960960   0.66584007   1.00100350 
H    0.45801926  -0.64927711   2.19013360 
H    1.37845103   0.51983457   3.09946529 
C    1.34417499   0.08878637  -0.22938214 
C    2.25648373   0.34713789  -1.27591864 
C    3.32017699   1.24698786  -1.12474135 
C    2.76714517   1.50679398   1.16945922 
C    3.55575807   1.87304517   0.09090341 
H    2.20134861  -0.15206899  -2.23789223 
H    3.98367125   1.48570036  -1.95137763 
H    2.97676699   1.89649816   2.16172301 
H    4.36859866   2.58487166   0.23265174 
Pd  -0.23899550  -1.26313654  -0.11975881 
Br  -1.69751158  -3.38096280  -0.32514372 
P    1.46765171  -2.91873562  -0.24858229 
H    1.42389638  -3.62103778   0.96470258 
C   -0.04845162  -1.68056248  -3.69214210 
O    1.07935313  -1.88440723  -4.03960017 
O   -0.84609355  -2.61879358  -3.22637592 
O   -0.65073001  -0.45491273  -3.74295722 
H    2.85748026  -2.72015695  -0.24561953 
H    1.47340403  -4.04874509  -1.07407261 
H    0.04608455   0.11365226  -4.08791008 
*
