! EnGrad PBEh-3c
%output 
xyzfile=True 
end 
%scf 
maxiter 250 
end
%output
Print[P_Hirshfeld] = 1
end
% maxcore
4000
*xyz -1 1
C   -1.82692731   0.03100722   0.52007462 
C   -1.63341397   1.09108280   1.41685562 
C   -3.17717148  -0.18458236   0.15076079 
C   -4.22755498   0.64050091   0.54766577 
C   -3.97427139   1.75574735   1.33113092 
C   -2.68106883   1.95700405   1.75504951 
H   -1.40805354  -2.23271710  -2.51079194 
H   -3.44817773  -1.09920788  -0.37257889 
H   -2.44559126   2.80387512   2.39433718 
H   -5.24441888   0.41554021   0.24247002 
H   -4.75558529   2.45062163   1.59468193 
C   -0.39278874   1.34578557   2.23608018 
C    0.79300021   0.40331232   2.18082669 
H   -0.73032305   1.33917319   3.27253393 
H   -0.04259231   2.36663933   2.04775198 
C    1.67034694   0.66478974   1.00030555 
H    0.44800803  -0.63218070   2.19085293 
H    1.37351463   0.52915066   3.09608938 
C    1.34543190   0.08990531  -0.22942127 
C    2.26327425   0.33914202  -1.27243285 
C    3.32637714   1.23312446  -1.12530445 
C    2.76783773   1.50310319   1.16511102 
C    3.56537255   1.85291279   0.09152085 
H    2.19973393  -0.15940135  -2.23665649 
H    3.98620865   1.46338627  -1.94923530 
H    2.96675845   1.90641873   2.15224583 
H    4.38156119   2.55796144   0.22858360 
Pd  -0.21672405  -1.27199401  -0.14189243 
Br  -1.72004367  -3.36452248  -0.34883030 
P    1.45711463  -2.91287820  -0.24001013 
H    1.40101688  -3.61190272   0.97369240 
C   -0.03280727  -1.67308992  -3.71882274 
O    1.10482394  -1.85971339  -4.04796371 
O   -0.87586884  -2.59345861  -3.23938761 
O   -0.60265125  -0.48046760  -3.75410007 
H    2.84600043  -2.71361481  -0.22300993 
H    1.47641120  -4.04324917  -1.06481343 
H    0.06716444   0.12406645  -4.10753595 
*
