! EnGrad PBEh-3c
%output 
xyzfile=True 
end 
%scf 
maxiter 250 
end
%output
Print[P_Hirshfeld] = 1
end
% maxcore
4000
*xyz -1 1
C   -1.76110898   0.04710014   0.47922144 
C   -1.62448272   1.06249577   1.46819291 
C   -3.11108280  -0.06106754   0.01242098 
C   -4.15770422   0.80708339   0.34247052 
C   -3.90891765   1.88333602   1.18047776 
C   -2.65387805   1.99449638   1.73386657 
H   -1.71136260  -2.76497033  -2.41332300 
H   -3.38337331  -0.87646248  -0.64749375 
H   -2.48733387   2.80372842   2.44287370 
H   -5.16448935   0.64286878  -0.04039119 
H   -4.69151216   2.57808907   1.44844683 
C   -0.42546103   1.21545329   2.41041346 
C    0.80729788   0.33542810   2.24498416 
H   -0.79826591   1.04641225   3.42043742 
H   -0.10391234   2.25029706   2.38285701 
C    1.65453463   0.67098316   1.04790949 
H    0.53957363  -0.72073358   2.21628899 
H    1.42919114   0.45945438   3.13453861 
C    1.34374171   0.14910759  -0.21694708 
C    2.22732363   0.43468078  -1.26462398 
C    3.24887659   1.36824961  -1.12275214 
C    2.73006695   1.54802776   1.19537623 
C    3.50111388   1.94522535   0.11065870 
H    2.16169419  -0.10204509  -2.19860226 
H    3.91928650   1.56027004  -1.95059491 
H    3.05401761   1.82743254   2.19319248 
H    4.24423216   2.72726738   0.21710280 
Pd  -0.16572108  -1.25691394  -0.23979142 
Br  -1.62223246  -3.51485700  -0.02144218 
P    1.51093302  -2.97593273  -0.28134060 
H    1.58335304  -3.70665515   0.92929739 
C   -0.01326887  -1.72364877  -3.72146200 
O    1.11938318  -1.74619147  -4.14252449 
O   -0.76252366  -2.74228603  -3.17954169 
O   -0.70820100  -0.56130097  -3.70595027 
H    2.87958919  -2.71342398  -0.37880409 
H    1.42552345  -4.07033552  -1.14970076 
H   -0.12596798   0.18333002  -3.93850283 
*
