! EnGrad PBEh-3c
%output 
xyzfile=True 
end 
%scf 
maxiter 250 
end
%output
Print[P_Hirshfeld] = 1
end
% maxcore
4000
*xyz -1 1
C   -1.76473347   0.05449073   0.46538603 
C   -1.62294280   1.05592762   1.45905886 
C   -3.11208305  -0.08523660   0.04027074 
C   -4.16463667   0.78155897   0.36989571 
C   -3.92822773   1.86920222   1.20308328 
C   -2.66756680   1.97093292   1.75010588 
H   -1.55569789  -2.67950146  -2.51144914 
H   -3.40566193  -0.91956363  -0.59936643 
H   -2.47773318   2.81611645   2.42789716 
H   -5.18492935   0.61571625   0.00737168 
H   -4.70907177   2.56873305   1.47822738 
C   -0.42949810   1.23172814   2.37744946 
C    0.80699385   0.34218773   2.23266286 
H   -0.79051670   1.08526987   3.40692285 
H   -0.09438937   2.28306762   2.33069497 
C    1.67051158   0.65761847   1.03591220 
H    0.52387263  -0.71350129   2.20505152 
H    1.41871698   0.47068433   3.12331278 
C    1.34520518   0.13119336  -0.21892752 
C    2.24130763   0.42276775  -1.26885739 
C    3.26728008   1.35644340  -1.12975184 
C    2.72760131   1.55541989   1.19117328 
C    3.51888030   1.92766687   0.11291967 
H    2.17536102  -0.11982806  -2.21701721 
H    3.93618782   1.54988602  -1.95037880 
H    3.04568303   1.83280252   2.18910153 
H    4.26792454   2.71031737   0.22161483 
Pd  -0.21967653  -1.24296489  -0.19475197 
Br  -1.62411085  -3.49521563  -0.09112728 
P    1.49979918  -2.96412274  -0.27479770 
H    1.55487943  -3.69284089   0.93804839 
C   -0.04467864  -1.71314141  -3.69709076 
O    1.08119227  -1.77855241  -4.11272625 
O   -0.84219869  -2.70863633  -3.11747713 
O   -0.68764692  -0.55385992  -3.71945606 
H    2.89423869  -2.71749175  -0.35444641 
H    1.43606264  -4.07553499  -1.13940772 
H   -0.08641007   0.17735666  -3.97139292 
*
