! EnGrad PBEh-3c
%output 
xyzfile=True 
end 
%scf 
maxiter 250 
end
%output
Print[P_Hirshfeld] = 1
end
% maxcore
4000
*xyz -1 1
C   -1.77941354   0.06856515   0.46219860 
C   -1.62141380   1.05480733   1.44863055 
C   -3.11677276  -0.10886504   0.06207889 
C   -4.17074291   0.75052613   0.39981713 
C   -3.94349956   1.84937555   1.22730114 
C   -2.67523611   1.94874679   1.76404003 
H   -1.45859483  -2.57030300  -2.55894659 
H   -3.42421241  -0.96259323  -0.54901038 
H   -2.46742760   2.82082224   2.41180486 
H   -5.19903381   0.58483485   0.05674456 
H   -4.72691251   2.55804891   1.50722345 
C   -0.42836809   1.24811102   2.34177006 
C    0.81011523   0.34903610   2.21584378 
H   -0.78224419   1.12805588   3.38965739 
H   -0.08500137   2.31381325   2.27647534 
C    1.67759936   0.65548581   1.02253608 
H    0.50603118  -0.70462224   2.19666223 
H    1.40820364   0.48260695   3.11579515 
C    1.34164356   0.10867923  -0.21891060 
C    2.24765900   0.40809209  -1.27091186 
C    3.28686662   1.33582641  -1.13151350 
C    2.73429389   1.55092038   1.18581714 
C    3.53023429   1.91691262   0.11280387 
H    2.18759676  -0.13439422  -2.23370452 
H    3.95451652   1.54058592  -1.95350593 
H    3.03330896   1.84377131   2.18584358 
H    4.29338703   2.68768454   0.22664213 
Pd  -0.25814575  -1.23578081  -0.15062482 
Br  -1.62945194  -3.47067003  -0.15799237 
P    1.48183886  -2.94864130  -0.26677646 
H    1.52462967  -3.67636763   0.94448318 
C   -0.08046483  -1.70257491  -3.64899491 
O    1.01285799  -1.83812756  -4.06992499 
O   -0.80959303  -2.66626814  -3.15096061 
O   -0.68115389  -0.53600422  -3.73267186 
H    2.90615404  -2.72119398  -0.32976409 
H    1.44771195  -4.07855141  -1.12768616 
H   -0.04744484   0.16101237  -4.00338711 
*
