! EnGrad PBEh-3c
%output 
xyzfile=True 
end 
%scf 
maxiter 250 
end
%output
Print[P_Hirshfeld] = 1
end
% maxcore
4000
*xyz -1 1
C   -1.78389101   0.07376097   0.46261327 
C   -1.62563450   1.05990578   1.44268158 
C   -3.12840615  -0.12391588   0.07077207 
C   -4.17705563   0.73194792   0.42014645 
C   -3.94957980   1.83343275   1.24368676 
C   -2.67872335   1.94111727   1.77271815 
H   -1.45090700  -2.48849372  -2.53841730 
H   -3.43156113  -0.98839500  -0.51728796 
H   -2.46058536   2.81746634   2.40071374 
H   -5.20350214   0.56273385   0.08747215 
H   -4.73552228   2.54816942   1.52360989 
C   -0.41867364   1.26509492   2.32637354 
C    0.81012682   0.35372501   2.20448261 
H   -0.77602774   1.15616881   3.37268653 
H   -0.08080432   2.32630497   2.24216126 
C    1.67746483   0.65525275   1.01725975 
H    0.49526900  -0.69733792   2.19296366 
H    1.40156391   0.49071757   3.11260912 
C    1.34130874   0.09759350  -0.22080530 
C    2.24789391   0.39416551  -1.27555178 
C    3.29541585   1.31931053  -1.12758180 
C    2.74094867   1.54485553   1.18125326 
C    3.53737974   1.91193631   0.10948584 
H    2.19347910  -0.13968905  -2.23917384 
H    3.96553901   1.53464937  -1.95686295 
H    3.02302932   1.85350594   2.18394698 
H    4.30966210   2.66999057   0.23005545 
Pd  -0.27681906  -1.23472139  -0.12415511 
Br  -1.63634166  -3.45202995  -0.19951886 
P    1.47530749  -2.93984308  -0.26357152 
H    1.50458452  -3.66472879   0.94769063 
C   -0.10206722  -1.69107546  -3.62341616 
O    0.99028947  -1.88293407  -4.04774087 
O   -0.74036745  -2.65874540  -3.22000869 
O   -0.68932123  -0.50922624  -3.73717851 
H    2.90651976  -2.72335415  -0.31439003 
H    1.45463292  -4.07684541  -1.11845606 
H   -0.02524106   0.14418966  -4.02140061 
*
