! EnGrad PBEh-3c
%output 
xyzfile=True 
end 
%scf 
maxiter 250 
end
%output
Print[P_Hirshfeld] = 1
end
% maxcore
4000
*xyz -1 1
C   -1.79052886   0.07342795   0.47005627 
C   -1.63035760   1.07018620   1.44022363 
C   -3.14232689  -0.13183032   0.07295936 
C   -4.18420432   0.71975731   0.43710341 
C   -3.95045622   1.81921026   1.25629095 
C   -2.67857433   1.94435695   1.77511750 
H   -1.44694470  -2.43720578  -2.52738599 
H   -3.43220290  -1.00456280  -0.49611362 
H   -2.45659809   2.80788019   2.39379555 
H   -5.20228296   0.54391465   0.10785546 
H   -4.73749422   2.53619998   1.53207005 
C   -0.40558012   1.28118605   2.31988648 
C    0.80910821   0.35845727   2.19764880 
H   -0.76999440   1.17818541   3.35467180 
H   -0.07924959   2.32694344   2.21810593 
C    1.67118254   0.66026204   1.01485600 
H    0.48828440  -0.68981828   2.19294363 
H    1.39712697   0.49619779   3.11198978 
C    1.34171301   0.09381698  -0.22286786 
C    2.24404236   0.38136313  -1.27937625 
C    3.29897869   1.30276337  -1.12185701 
C    2.75003927   1.53357426   1.17793003 
C    3.53901191   1.91069047   0.10376394 
H    2.19525572  -0.13894013  -2.23703327 
H    3.97106625   1.52936605  -1.95895947 
H    3.01325577   1.86343910   2.18209320 
H    4.32093889   2.65411753   0.23204819 
Pd  -0.27209223  -1.24035067  -0.11524662 
Br  -1.64640239  -3.43695851  -0.22458886 
P    1.47486337  -2.93495519  -0.26235388 
H    1.49012926  -3.65572938   0.94902544 
C   -0.07838121  -1.64622903  -3.63662286 
O    1.00517449  -1.90909521  -4.04250321 
O   -0.74504405  -2.69348306  -3.23485889 
O   -0.70480769  -0.48015238  -3.73525624 
H    2.89699769  -2.72405981  -0.30354532 
H    1.45870579  -4.07093194  -1.10973943 
H   -0.01305460   0.12644187  -4.03095180 
*
