! EnGrad PBEh-3c
%output 
xyzfile=True 
end 
%scf 
maxiter 250 
end
%output
Print[P_Hirshfeld] = 1
end
% maxcore
4000
*xyz -1 1
C   -1.79899831   0.07192404   0.47381807 
C   -1.63332362   1.07922822   1.43430787 
C   -3.15643180  -0.14858549   0.08839061 
C   -4.19527066   0.69681274   0.46773892 
C   -3.95939408   1.79867826   1.28017324 
C   -2.68459270   1.93997867   1.78124379 
H   -1.38367629  -2.35546676  -2.55517434 
H   -3.44054415  -1.04007669  -0.45515201 
H   -2.44829607   2.80316757   2.38301738 
H   -5.21018382   0.51049507   0.14893485 
H   -4.74455763   2.51629097   1.55225901 
C   -0.39419623   1.30516529   2.29937248 
C    0.80639910   0.36792319   2.18810178 
H   -0.75954714   1.21941119   3.32836810 
H   -0.07257226   2.34024486   2.17003078 
C    1.67222644   0.66011985   1.00786389 
H    0.47465196  -0.67735135   2.18913248 
H    1.38809957   0.50667071   3.10635870 
C    1.34292293   0.08493461  -0.22670141 
C    2.24672933   0.36382233  -1.28277936 
C    3.30903540   1.27940548  -1.12103636 
C    2.75732625   1.52440164   1.17316980 
C    3.54787657   1.89978805   0.09850304 
H    2.20117159  -0.14512857  -2.24143917 
H    3.98127878   1.51750771  -1.95920419 
H    2.99833463   1.87705660   2.17721985 
H    4.34299565   2.62865233   0.23541502 
Pd  -0.28436300  -1.24287604  -0.09195468 
Br  -1.66062032  -3.41157320  -0.27778551 
P    1.47181703  -2.92595002  -0.25876797 
H    1.46245084  -3.64009012   0.95419975 
C   -0.08911907  -1.63963227  -3.63305991 
O    1.02362123  -1.93577738  -4.03177556 
O   -0.77626499  -2.68063825  -3.22971075 
O   -0.70577501  -0.44664210  -3.73819488 
H    2.88885337  -2.72571610  -0.28150226 
H    1.46676712  -4.06481630  -1.09552585 
H    0.01457881   0.11029552  -4.05501420 
*
