! EnGrad PBEh-3c
%output 
xyzfile=True 
end 
%scf 
maxiter 250 
end
%output
Print[P_Hirshfeld] = 1
end
% maxcore
4000
*xyz -1 1
C   -1.81864756   0.06226144   0.49252376 
C   -1.63262322   1.09095765   1.42831740 
C   -3.16966459  -0.16210949   0.10837783 
C   -4.20935435   0.67262651   0.50535346 
C   -3.96812536   1.77661533   1.30641944 
C   -2.68602562   1.94445696   1.77546659 
H   -1.37235459  -2.28235145  -2.54741876 
H   -3.44528725  -1.07405439  -0.41410316 
H   -2.44281883   2.79720471   2.38034217 
H   -5.22057859   0.46880700   0.19162282 
H   -4.74725048   2.48640134   1.57068601 
C   -0.38687340   1.32617377   2.27354355 
C    0.80216459   0.38279916   2.18341693 
H   -0.74583112   1.27002536   3.29788677 
H   -0.06248321   2.35089980   2.11623364 
C    1.66957433   0.66619874   1.00018517 
H    0.46103417  -0.65907716   2.18869130 
H    1.37971742   0.51669964   3.10108975 
C    1.34293174   0.08271309  -0.22944212 
C    2.25073471   0.34881266  -1.27938918 
C    3.31895307   1.25194303  -1.12296366 
C    2.76756857   1.50847882   1.17006688 
C    3.55224654   1.88464134   0.09147427 
H    2.20362502  -0.14980626  -2.24128768 
H    3.98606208   1.49854092  -1.95521208 
H    2.98099036   1.89301007   2.16817559 
H    4.36487027   2.59743985   0.23598220 
Pd  -0.26291273  -1.25537932  -0.09572393 
Br  -1.68422913  -3.38626306  -0.32108110 
P    1.46923561  -2.91895541  -0.25286579 
H    1.43312001  -3.62404883   0.96034092 
C   -0.07037849  -1.67855359  -3.65727622 
O    1.04900939  -1.92124713  -4.02685396 
O   -0.80120626  -2.63649612  -3.24278129 
O   -0.68531975  -0.42777877  -3.74047844 
H    2.86853844  -2.72426721  -0.25615970 
H    1.47332154  -4.05328540  -1.07876228 
H    0.03880137   0.10224407  -4.07945602 
*
