! EnGrad PBEh-3c
%output 
xyzfile=True 
end 
%scf 
maxiter 250 
end
%output
Print[P_Hirshfeld] = 1
end
% maxcore
4000
*xyz 0 1
C   -1.81867945   0.18095320  -0.27757880 
C   -1.90692127  -0.77770090  -1.22728677 
C   -1.37524725  -2.02327215  -1.03401618 
C   -0.62356693  -2.30723309   0.06967319 
C   -1.14649823  -0.19080818   0.88858283 
C   -0.47977975  -1.40346003   1.06589267 
H   -2.17711213   1.19787503  -0.40450570 
H   -2.40366855  -0.51456291  -2.08603770 
H   -1.54606197  -2.79471951  -1.76943521 
H    0.13895027  -1.55560412   1.94392026 
H   -0.15678009  -3.21035163   0.21615425 
Pd   1.50935072   1.25723142   0.10071814 
O    2.78540050   1.06041604  -1.51647689 
O    2.61055343  -0.42326569   0.03590956 
O    0.40817884   2.88953601  -0.00610838 
C    0.12866481   2.94290614   1.22451852 
O    0.58589472   2.08058690   2.01045009 
H   -1.14475851   0.48319059   1.71082611 
C    3.15276527  -0.03377057  -1.03266855 
H    3.97693472  -0.60225551  -1.46910385 
H   -0.54012610   3.76073002   1.56325627 
*
