! EnGrad PBEh-3c
%output 
xyzfile=True 
end 
%scf 
maxiter 250 
end
%output
Print[P_Hirshfeld] = 1
end
% maxcore
4000
*xyz 0 1
C   -1.81502346   0.17539324  -0.29658011 
C   -1.94533814  -0.80437302  -1.22979623 
C   -1.42970661  -2.04868554  -1.01956323 
C   -0.65934765  -2.33732667   0.06469095 
C   -1.11743037  -0.20425730   0.84394337 
C   -0.47408631  -1.41754223   1.04826762 
H   -2.15466595   1.21940484  -0.39383341 
H   -2.45271117  -0.51016697  -2.09387471 
H   -1.60933882  -2.79600166  -1.71938996 
H    0.14826985  -1.53905459   1.94709534 
H   -0.17110268  -3.24686732   0.23462720 
Pd   1.52388532   1.26746618   0.10374709 
O    2.80541959   1.09440161  -1.49076357 
O    2.62196714  -0.41611084   0.03507285 
O    0.42835273   2.89722297  -0.00327466 
C    0.12837030   2.93884471   1.22470358 
O    0.57548764   2.06647915   2.01395008 
H   -1.06648678   0.49934332   1.65081382 
C    3.17144395  -0.00702744  -1.01969628 
H    4.00647852  -0.56156832  -1.44854666 
H   -0.54090599   3.75440156   1.55870206 
*
