! EnGrad PBEh-3c
%output 
xyzfile=True 
end 
%scf 
maxiter 250 
end
%output
Print[P_Hirshfeld] = 1
end
% maxcore
4000
*xyz 0 1
C   -1.77336080   0.18137697  -0.27322078 
C   -1.98363625  -0.79210165  -1.23852098 
C   -1.46910086  -2.07242557  -1.01572597 
C   -0.66651413  -2.36485262   0.09010417 
C   -1.08553746  -0.14856481   0.87777947 
C   -0.47468688  -1.37452204   1.04003105 
H   -2.12887447   1.20010054  -0.41045935 
H   -2.52169479  -0.52799488  -2.15286468 
H   -1.67973689  -2.85207884  -1.72822582 
H    0.15070262  -1.54245593   1.91276336 
H   -0.18191335  -3.33472839   0.22837949 
Pd   1.50452374   1.25845700   0.11874411 
O    2.83289081   1.12257731  -1.47396379 
O    2.62290668  -0.41691482   0.02305244 
O    0.44291110   2.90241907   0.00868374 
C    0.12546224   2.93907393   1.23980759 
O    0.56439343   2.08199707   2.00792994 
H   -1.01500965   0.53858024   1.64809777 
C    3.21539862   0.02448794  -0.99915236 
H    4.04081119  -0.54185667  -1.44559227 
H   -0.54345012   3.74679358   1.55512495 
*
