! EnGrad PBEh-3c
%output 
xyzfile=True 
end 
%scf 
maxiter 250 
end
%output
Print[P_Hirshfeld] = 1
end
% maxcore
4000
*xyz 0 1
C   -1.75192412   0.18406864  -0.27541433 
C   -1.99399178  -0.79198251  -1.23868959 
C   -1.49206634  -2.09398059  -1.02308420 
C   -0.67916594  -2.37036190   0.09632059 
C   -1.05494190  -0.10996361   0.89411507 
C   -0.47077315  -1.36399208   1.03483281 
H   -2.11058251   1.17708186  -0.43882280 
H   -2.56129313  -0.56713364  -2.16827570 
H   -1.73461006  -2.89986179  -1.74101039 
H    0.15629903  -1.55621665   1.87717675 
H   -0.22021552  -3.37655955   0.20858021 
Pd   1.48403898   1.23952864   0.12114543 
O    2.86328932   1.14044984  -1.45583532 
O    2.62898486  -0.41844128   0.01415761 
O    0.44978284   2.90961099   0.01842555 
C    0.12689613   2.95489721   1.24460771 
O    0.56051780   2.09603714   2.01886566 
H   -0.98029231   0.60875436   1.70241880 
C    3.24658958   0.04316896  -0.98619817 
H    4.07160654  -0.52727587  -1.44673583 
H   -0.55431523   3.75053604   1.55968726 
*
