! EnGrad PBEh-3c
%output 
xyzfile=True 
end 
%scf 
maxiter 250 
end
%output
Print[P_Hirshfeld] = 1
end
% maxcore
4000
*xyz 0 1
C   -1.75827970   0.18589805  -0.26806560 
C   -1.99080923  -0.78806699  -1.23659298 
C   -1.48303894  -2.08527036  -1.01957587 
C   -0.67274893  -2.36649415   0.09777739 
C   -1.06843445  -0.13219125   0.88023156 
C   -0.47304212  -1.36164465   1.04021389 
H   -2.11661072   1.18380937  -0.42777785 
H   -2.54702702  -0.55084263  -2.16539638 
H   -1.71407517  -2.88428323  -1.73868680 
H    0.15295925  -1.55050849   1.88852001 
H   -0.20323657  -3.36310071   0.21659889 
Pd   1.49214383   1.24683468   0.12134371 
O    2.85137142   1.13365852  -1.46389549 
O    2.62557729  -0.41770330   0.01673846 
O    0.44720471   2.90586176   0.01502051 
C    0.12375300   2.95103371   1.24254327 
O    0.56253083   2.08896381   2.01471045 
H   -0.99331129   0.58171811   1.68114924 
C    3.23454941   0.03660687  -0.99029304 
H    4.05993715  -0.53367225  -1.44677304 
H   -0.54874902   3.74726366   1.55681958 
*
