! EnGrad PBEh-3c
%output 
xyzfile=True 
end 
%scf 
maxiter 250 
end
%output
Print[P_Hirshfeld] = 1
end
% maxcore
4000
*xyz 0 1
C   -1.79533418   0.18952461  -0.25385101 
C   -1.73938327  -0.73080627  -1.31056642 
C   -1.13089550  -1.95566391  -1.15910343 
C   -0.46803586  -2.25773498   0.01792378 
C   -1.23998057  -0.10600777   1.08801911 
C   -0.47442571  -1.36455770   1.10225140 
H   -2.31989033   1.09515371  -0.40561029 
H   -2.26238730  -0.49472065  -2.22844080 
H   -1.19219023  -2.68300710  -1.93899706 
H    0.06003884  -1.62497186   1.98444800 
H    0.01024264  -3.21217691   0.13587041 
Pd   1.40289998   1.20348551   0.07120867 
O    2.63815535   0.89143094  -1.62819344 
O    2.60090377  -0.45490552   0.05872992 
O    0.34239228   2.90125168  -0.08382435 
C    0.15505947   2.93563202   1.29895036 
O    0.62666472   2.17634600   1.94277129 
H   -1.56395598   0.67344188   2.34574890 
C    3.07819755  -0.16733271  -1.07554184 
H    3.80353361  -0.80519505  -1.56782430 
H   -0.53410279   3.78922490   1.60479054 
*
