! EnGrad PBEh-3c
%output 
xyzfile=True 
end 
%scf 
maxiter 250 
end
%output
Print[P_Hirshfeld] = 1
end
% maxcore
4000
*xyz 0 1
C   -1.79019657   0.18189928  -0.24484878 
C   -1.72902713  -0.71722108  -1.30893092 
C   -1.11311146  -1.94230346  -1.15699720 
C   -0.45949502  -2.24608920   0.02385574 
C   -1.23604041  -0.15650759   1.02689172 
C   -0.48078488  -1.36004936   1.10126212 
H   -2.33465983   1.09064196  -0.40386410 
H   -2.24800121  -0.49067360  -2.23128859 
H   -1.16171937  -2.66948059  -1.94910750 
H    0.05307135  -1.63017936   1.99337622 
H    0.02347055  -3.20414970   0.13300631 
Pd   1.40195049   1.18967847   0.03642224 
O    2.63046996   0.87989599  -1.62670941 
O    2.61625261  -0.45815268   0.06694721 
O    0.33587768   2.90248853  -0.04886464 
C    0.14119358   2.97130737   1.24977146 
O    0.64204589   2.16237796   1.96442105 
H   -1.59847259   0.70618465   2.41605685 
C    3.04685936  -0.18053484  -1.08374216 
H    3.78945374  -0.81529381  -1.56802332 
H   -0.53031043   3.78540669   1.60978424 
*
