! EnGrad PBEh-3c
%output 
xyzfile=True 
end 
%scf 
maxiter 250 
end
%output
Print[P_Hirshfeld] = 1
end
% maxcore
4000
*xyz 0 1
C   -1.78804900   0.18406714  -0.24104712 
C   -1.74235490  -0.72840284  -1.30688361 
C   -1.13414737  -1.95761323  -1.15600399 
C   -0.47144012  -2.25433610   0.02078010 
C   -1.23782707  -0.11068116   1.07949264 
C   -0.48190478  -1.35315665   1.09923978 
H   -2.31936049   1.09959224  -0.40881394 
H   -2.26553404  -0.49620757  -2.22791759 
H   -1.19900869  -2.68764897  -1.93874000 
H    0.06404004  -1.62627231   1.98484085 
H    0.00783664  -3.21514825   0.13633235 
Pd   1.40398608   1.20370430   0.06583634 
O    2.64413792   0.89046716  -1.62383791 
O    2.60269060  -0.45583912   0.05755128 
O    0.34216372   2.89806234  -0.05795188 
C    0.13595662   2.96900235   1.24962481 
O    0.64264336   2.14846310   1.97213786 
H   -1.55689385   0.66723090   2.33180371 
C    3.07339594  -0.15870516  -1.07486132 
H    3.80892789  -0.80329303  -1.56718618 
H   -0.53196847   3.78535319   1.60444766 
*
