! EnGrad PBEh-3c
%output 
xyzfile=True 
end 
%scf 
maxiter 250 
end
%output
Print[P_Hirshfeld] = 1
end
% maxcore
4000
*xyz 0 1
C   -1.77926529   0.18379093  -0.22094329 
C   -1.76100314  -0.73680867  -1.29631381 
C   -1.16382740  -1.97631161  -1.15046010 
C   -0.48999499  -2.25740166   0.02393465 
C   -1.23619338  -0.07077682   1.12221149 
C   -0.49107638  -1.33169157   1.09724335 
H   -2.29948852   1.11346603  -0.41856441 
H   -2.28965884  -0.50433076  -2.22196153 
H   -1.25135760  -2.71517626  -1.92646849 
H    0.08072817  -1.62283242   1.97327327 
H   -0.01403534  -3.22997832   0.14127468 
Pd   1.41001182   1.21756782   0.09125614 
O    2.66687483   0.90681972  -1.61590032 
O    2.59066685  -0.45353916   0.04681696 
O    0.34854265   2.89132899  -0.04417776 
C    0.12779593   2.97322509   1.22618285 
O    0.64308166   2.12956155   1.98745205 
H   -1.49854287   0.61266051   2.21296813 
C    3.09805431  -0.12950636  -1.06396228 
H    3.83731301  -0.78442755  -1.56325285 
H   -0.53335785   3.78278549   1.59786802 
*
