! EnGrad PBEh-3c
%output 
xyzfile=True 
end 
%scf 
maxiter 250 
end
%output
Print[P_Hirshfeld] = 1
end
% maxcore
4000
*xyz 0 1
C   -1.79140131   0.20128928  -0.19045276 
C   -1.83996398  -0.73527769  -1.20609746 
C   -1.29603597  -2.01172734  -1.08535996 
C   -0.57424485  -2.24092475   0.08384142 
C   -1.18776048  -0.14247400   0.98730449 
C   -0.50259238  -1.31803350   1.10781930 
H   -2.21040646   1.15015326  -0.43011542 
H   -2.36299801  -0.52222783  -2.13896518 
H   -1.45326837  -2.80352393  -1.85650835 
H    0.12070123  -1.58859142   1.92451169 
H   -0.11321115  -3.22308875   0.18075009 
Pd   1.47452245   1.23687505   0.10543093 
O    2.75437640   1.01012717  -1.56052791 
O    2.58958584  -0.43638555   0.03533133 
O    0.38139731   2.87840679  -0.00874240 
C    0.12204788   2.95340811   1.23867450 
O    0.60100628   2.11396327   1.99139038 
H   -1.26640843   0.46016480   1.80679220 
C    3.13765198  -0.06836382  -1.04385871 
H    3.93611996  -0.67148974  -1.50821745 
H   -0.53397029   3.76307289   1.56849843 
*
