! EnGrad PBEh-3c
%output 
xyzfile=True 
end 
%scf 
maxiter 250 
end
%output
Print[P_Hirshfeld] = 1
end
% maxcore
4000
*xyz 0 1
C   -1.72350953   0.18590317  -0.30234942 
C   -1.79756305  -0.76000378  -1.31833710 
C   -1.25711837  -2.01803274  -1.13120476 
C   -0.53072821  -2.29510428   0.01222653 
C   -1.11457334  -0.17291746   0.88491365 
C   -0.42979540  -1.36124571   1.03521621 
H   -2.24135629   1.11564310  -0.49440834 
H   -2.37450338  -0.56402566  -2.21045393 
H   -1.41601087  -2.78884250  -1.87814672 
H    0.15469469  -1.62883076   1.90391069 
H   -0.10737229  -3.28057270   0.13771577 
Pd   1.40529437   1.15717281  -0.01311467 
O    2.79831896   0.99027861  -1.54860811 
O    2.63762968  -0.48065329   0.02514406 
O    0.34661437   2.89311035   0.02142120 
C    0.10550347   3.00983914   1.23180771 
O    0.60472238   2.17119955   2.04914141 
H   -1.54159514   0.88453253   2.60003427 
C    3.12631407  -0.12461214  -1.07958391 
H    3.92890778  -0.71931497  -1.53065185 
H   -0.57386999   3.78646672   1.60533510 
*
