! EnGrad PBEh-3c
%output 
xyzfile=True 
end 
%scf 
maxiter 250 
end
%output
Print[P_Hirshfeld] = 1
end
% maxcore
4000
*xyz 0 1
C   -1.74757232   0.19706553  -0.24338604 
C   -1.91830268  -0.78124879  -1.20767381 
C   -1.44800262  -2.07221564  -1.03188582 
C   -0.65294017  -2.29879825   0.07536503 
C   -1.10865124  -0.13544266   0.91414752 
C   -0.47100471  -1.33169465   1.04719245 
H   -2.09683675   1.18723093  -0.49721213 
H   -2.47685406  -0.56436341  -2.09919567 
H   -1.69869704  -2.87741007  -1.73339546 
H    0.20398937  -1.57413301   1.85301163 
H   -0.22704626  -3.27492544   0.20752541 
Pd   1.44626371   1.18382264   0.08181651 
O    2.93805688   1.13827041  -1.47099342 
O    2.58175929  -0.44869370  -0.04457844 
O    0.40252930   2.83715757   0.02614214 
C    0.11309233   2.95464795   1.26184060 
O    0.56169803   2.14960402   2.09898278 
H   -1.12269915   0.49003029   1.70691746 
C    3.23494349   0.01005806  -1.02756195 
H    4.06410034  -0.57007426  -1.45145594 
H   -0.57182816   3.77324055   1.53769644 
*
