! EnGrad PBEh-3c
%output 
xyzfile=True 
end 
%scf 
maxiter 250 
end
%output
Print[P_Hirshfeld] = 1
end
% maxcore
4000
*xyz 0 1
C   -1.76128241   0.19179816  -0.27753827 
C   -1.93726883  -0.78674356  -1.20712155 
C   -1.46849577  -2.07131441  -1.01539175 
C   -0.66652410  -2.31206809   0.07959781 
C   -1.09456300  -0.16213327   0.86896311 
C   -0.46305488  -1.36774847   1.03717393 
H   -2.08728920   1.19654551  -0.48728990 
H   -2.48640589  -0.55871023  -2.08593734 
H   -1.71979029  -2.87017143  -1.70791196 
H    0.20486440  -1.56431031   1.85871040 
H   -0.23524141  -3.27095383   0.21815332 
Pd   1.44962607   1.18281911   0.07528327 
O    2.94707084   1.15379633  -1.45549838 
O    2.58613685  -0.44926155  -0.04883589 
O    0.40747788   2.83624634   0.02844446 
C    0.11684866   2.94738424   1.26708916 
O    0.55440210   2.15032058   2.10339679 
H   -1.08331006   0.50427695   1.68274487 
C    3.24188886   0.02035516  -1.02394528 
H    4.07487790  -0.55377363  -1.44015712 
H   -0.57299082   3.77548204   1.53372320 
*
