! EnGrad PBEh-3c
%output 
xyzfile=True 
end 
%scf 
maxiter 250 
end
%output
Print[P_Hirshfeld] = 1
end
% maxcore
4000
*xyz 0 1
C   -1.77228900   0.18817183  -0.30768008 
C   -1.97072542  -0.80069528  -1.21053306 
C   -1.50375038  -2.07431345  -0.99135681 
C   -0.69033736  -2.33876324   0.08275315 
C   -1.07306296  -0.18103261   0.82675795 
C   -0.45611571  -1.39925603   1.02800590 
H   -2.07033437   1.21170499  -0.47531058 
H   -2.50925242  -0.55221993  -2.07354257 
H   -1.76000799  -2.86640216  -1.67073103 
H    0.20767185  -1.55065319   1.86420278 
H   -0.24857612  -3.27647397   0.23364047 
Pd   1.45531479   1.18102042   0.06891367 
O    2.96423186   1.18122858  -1.43164944 
O    2.59051310  -0.44916153  -0.05616310 
O    0.41691249   2.83265720   0.03505889 
C    0.11719685   2.94310799   1.27454231 
O    0.54386761   2.14972347   2.11005326 
H   -1.01278206   0.50544866   1.61099227 
C    3.25509488   0.03907606  -1.01626827 
H    4.09612946  -0.52601896  -1.42278917 
H   -0.57107934   3.77410432   1.52522456 
*
