! EnGrad PBEh-3c
%output 
xyzfile=True 
end 
%scf 
maxiter 250 
end
%output
Print[P_Hirshfeld] = 1
end
% maxcore
4000
*xyz 0 1
C   -1.76228818   0.18468466  -0.32044275 
C   -1.99781666  -0.81568911  -1.22634401 
C   -1.52609093  -2.08621964  -0.98622094 
C   -0.70576382  -2.36971479   0.07986632 
C   -1.04748119  -0.17621990   0.80716537 
C   -0.45023294  -1.40355765   1.01665651 
H   -2.06389072   1.21972691  -0.46915707 
H   -2.54124699  -0.55040874  -2.09465689 
H   -1.78575027  -2.86671577  -1.65199774 
H    0.20874506  -1.54584027   1.86955715 
H   -0.24961396  -3.31239917   0.23922532 
Pd   1.44922235   1.17769486   0.06793914 
O    2.97149194   1.19517199  -1.41634605 
O    2.59340815  -0.45154966  -0.06476008 
O    0.42221109   2.83235804   0.04031937 
C    0.11468119   2.94387066   1.27793342 
O    0.53670920   2.15210151   2.11335401 
H   -0.97171222   0.54843894   1.62110992 
C    3.27075049   0.05362056  -1.00459239 
H    4.11187107  -0.51125247  -1.41745981 
H   -0.56760063   3.77236062   1.52184256 
*
