! EnGrad PBEh-3c
%output 
xyzfile=True 
end 
%scf 
maxiter 250 
end
%output
Print[P_Hirshfeld] = 1
end
% maxcore
4000
*xyz 0 1
C   -1.73396117   0.19124038  -0.31375611 
C   -1.80965378  -0.77703198  -1.31461555 
C   -1.27311457  -2.03233511  -1.13563006 
C   -0.54355596  -2.30748903   0.00775832 
C   -1.11968653  -0.11284237   0.95776667 
C   -0.42510029  -1.36710672   1.03376245 
H   -2.22402218   1.12385722  -0.49108248 
H   -2.38835355  -0.56365172  -2.20909468 
H   -1.44359588  -2.79825415  -1.86441808 
H    0.15935437  -1.62135429   1.89930513 
H   -0.11633756  -3.28931623   0.14272068 
Pd   1.39984523   1.17393614   0.04476673 
O    2.80477327   0.99603903  -1.55667805 
O    2.60908035  -0.47383637   0.00936435 
O    0.36136345   2.88952516  -0.05536466 
C    0.13219319   2.94007421   1.33649714 
O    0.57853023   2.20791006   2.00506854 
H   -1.50045619   0.83691121   2.50334409 
C    3.17118385  -0.10009903  -1.06166003 
H    3.93968639  -0.71179248  -1.53470446 
H   -0.57630726   3.79273955   1.59601770 
*
