! EnGrad PBEh-3c
%output 
xyzfile=True 
end 
%scf 
maxiter 250 
end
%output
Print[P_Hirshfeld] = 1
end
% maxcore
4000
*xyz 0 1
C   -1.73064225   0.18906280  -0.30479271 
C   -1.81473915  -0.77798004  -1.31305146 
C   -1.27803675  -2.03594225  -1.13293976 
C   -0.54758421  -2.30827307   0.00852065 
C   -1.12053676  -0.10479314   0.96620117 
C   -0.42952717  -1.35914568   1.03296212 
H   -2.21986816   1.12833804  -0.49258223 
H   -2.39249802  -0.56447404  -2.20748284 
H   -1.45366142  -2.80356024  -1.86180898 
H    0.16226688  -1.62063277   1.89802063 
H   -0.11974992  -3.29231623   0.14422422 
Pd   1.39861131   1.17805672   0.05020804 
O    2.81014071   0.99828098  -1.55565491 
O    2.60536157  -0.47332583   0.00536104 
O    0.36208553   2.88474318  -0.03406205 
C    0.11335371   2.97257086   1.28339078 
O    0.59660098   2.17552665   2.03957368 
H   -1.48675582   0.82102497   2.47112369 
C    3.17543073  -0.09090308  -1.05726906 
H    3.94555473  -0.70879178  -1.53452024 
H   -0.57365938   3.78923859   1.59410741 
*
