! EnGrad PBEh-3c
%output 
xyzfile=True 
end 
%scf 
maxiter 250 
end
%output
Print[P_Hirshfeld] = 1
end
% maxcore
4000
*xyz 0 1
C   -1.72866181   0.18833047  -0.29206352 
C   -1.82682644  -0.78310515  -1.30645075 
C   -1.29319806  -2.04576217  -1.12903593 
C   -0.55842431  -2.31121168   0.01119995 
C   -1.12362033  -0.07650700   1.00006095 
C   -0.43584003  -1.34671227   1.03263480 
H   -2.20640646   1.13757356  -0.49477466 
H   -2.40443048  -0.56604981  -2.20352763 
H   -1.48103916  -2.81675159  -1.85299573 
H    0.16855606  -1.61695093   1.89282086 
H   -0.12933526  -3.29964075   0.14865505 
Pd   1.39757029   1.18781069   0.07502125 
O    2.82225284   1.00705637  -1.55511600 
O    2.59183482  -0.46969748  -0.00522919 
O    0.36719592   2.87717498  -0.02655051 
C    0.11065011   2.97197171   1.26388412 
O    0.59937204   2.16394967   2.05214765 
H   -1.44815093   0.77645649   2.38027207 
C    3.19409182  -0.07064661  -1.04569282 
H    3.95948342  -0.69932830  -1.53339830 
H   -0.57214338   3.78735338   1.58779134 
*
