! EnGrad PBEh-3c
%output 
xyzfile=True 
end 
%scf 
maxiter 250 
end
%output
Print[P_Hirshfeld] = 1
end
% maxcore
4000
*xyz 0 1
C   -1.72231088   0.18996973  -0.26172269 
C   -1.84647938  -0.78201903  -1.28512049 
C   -1.32609805  -2.05793301  -1.11440066 
C   -0.57741552  -2.30594689   0.02603339 
C   -1.12648251  -0.05615072   1.02662789 
C   -0.44896411  -1.32065810   1.03685427 
H   -2.18033871   1.14928391  -0.50308903 
H   -2.42593523  -0.57058869  -2.19025082 
H   -1.53467983  -2.84300438  -1.83629202 
H    0.17975291  -1.61114659   1.87755616 
H   -0.15115862  -3.30723496   0.15785325 
Pd   1.40587802   1.19083663   0.08745560 
O    2.85087458   1.03489916  -1.54285121 
O    2.58250629  -0.46423301  -0.01673980 
O    0.37189202   2.86434589   0.01356818 
C    0.10997132   2.97179064   1.23476306 
O    0.59286508   2.15998136   2.06116760 
H   -1.37529132   0.69484528   2.21062653 
C    3.20637981  -0.04776154  -1.03667916 
H    3.98698898  -0.67387098  -1.52057476 
H   -0.56869087   3.77891237   1.57546690 
*
