! EnGrad PBEh-3c
%output 
xyzfile=True 
end 
%scf 
maxiter 250 
end
%output
Print[P_Hirshfeld] = 1
end
% maxcore
4000
*xyz 0 1
C   -1.72002078   0.19924492  -0.23072872 
C   -1.87875923  -0.78166342  -1.24561157 
C   -1.38772559  -2.07609145  -1.08534668 
C   -0.61233022  -2.29769732   0.05085321 
C   -1.12756133  -0.02665906   1.06417015 
C   -0.46098148  -1.29608773   1.04471690 
H   -2.13164702   1.16409904  -0.51568768 
H   -2.46230765  -0.57748742  -2.15959149 
H   -1.62922731  -2.88178413  -1.79829918 
H    0.19779676  -1.59825422   1.84874306 
H   -0.19316507  -3.31131712   0.17632961 
Pd   1.42346753   1.18688766   0.09851174 
O    2.90268228   1.08879943  -1.51401355 
O    2.57113738  -0.45511345  -0.03412203 
O    0.38740447   2.84415435   0.02605449 
C    0.10779654   2.96030262   1.26343601 
O    0.57096914   2.16874421   2.06173025 
H   -1.24864210   0.55656520   1.91872211 
C    3.22774809  -0.01570258  -1.02971758 
H    4.03295965  -0.62408299  -1.49173713 
H   -0.56550413   3.76601097   1.55245638 
*
