! EnGrad PBEh-3c
%output 
xyzfile=True 
end 
%scf 
maxiter 250 
end
%output
Print[P_Hirshfeld] = 1
end
% maxcore
4000
*xyz 0 1
C   -1.72287155   0.20512351  -0.22513611 
C   -1.88388058  -0.77507349  -1.22945453 
C   -1.40501961  -2.07380684  -1.07090916 
C   -0.62070714  -2.28903793   0.06209362 
C   -1.12369127  -0.05885750   1.02518663 
C   -0.46298329  -1.29652096   1.05138785 
H   -2.12036678   1.16300679  -0.51763358 
H   -2.46702522  -0.57781756  -2.14370745 
H   -1.64988685  -2.88614677  -1.78529310 
H    0.19978876  -1.59427148   1.84104175 
H   -0.20533277  -3.30146367   0.18289095 
Pd   1.43539329   1.17498783   0.07574185 
O    2.91708246   1.10811745  -1.49742770 
O    2.58130613  -0.45380396  -0.03167282 
O    0.39062392   2.84157140   0.02576282 
C    0.10622852   2.96230832   1.28809254 
O    0.56133735   2.17639432   2.05896158 
H   -1.21939367   0.53234313   1.85898072 
C    3.21690873  -0.01946784  -1.03890474 
H    4.04211037  -0.60631038  -1.47583575 
H   -0.56583197   3.76235141   1.54724777 
*
