38
	Energy:      79.4213996
Pd        -2.66267        2.10638        2.03863
O         -1.31493        3.26949        2.78088
C         -1.59798        4.37771        3.21643
O         -2.86038        4.83907        3.10280
C         -0.56257        5.18716        3.94303
H         -0.91357        5.36358        4.98421
H         -0.41242        6.16540        3.44478
H          0.40545        4.64441        3.99603
N         -4.18820        0.97426        1.30497
C         -3.65690       -0.39418        1.20062
H         -2.79436       -0.42517        0.51823
H         -4.42498       -1.10776        0.82990
H         -3.29858       -0.73436        2.19819
C         -4.69797        1.45638        0.01190
H         -4.97351        2.53008        0.09512
H         -5.61534        0.88993       -0.27645
H         -3.94935        1.33938       -0.79523
C         -4.84749        1.29732        3.69128
C         -5.66563        1.10805        4.81265
C         -5.19891        1.47243        6.08042
C         -3.92671        2.04217        6.22135
C         -3.11534        2.23570        5.09632
C         -3.58717        1.84933        3.83743
H         -3.57524        2.34094        7.19999
H         -2.14461        2.69275        5.21369
H         -6.65476        0.68085        4.70351
H         -5.82597        1.32254        6.94965
H         -3.11478        5.69985        3.46417
C         -5.31159        0.97814        2.30027
H         -6.07803        1.75313        2.06896
H         -5.85338        0.00416        2.29547
O         -1.81748        2.46783        0.31134
C         -1.03281        1.74038       -0.53619
O         -0.81004        0.55241       -0.35978
C         -0.28462        2.50586       -1.60199
H          0.57037        1.94207       -2.04065
H          0.14743        3.40334       -1.11706
H         -0.95882        2.86343       -2.41089
