38
	Energy:     205.9149658
Pd        -2.32684        3.21851        1.64246
O         -0.95724        4.27835        2.26862
C         -1.51313        4.50484        3.49130
O         -2.58297        3.85476        3.41116
C         -0.98202        5.30426        4.62945
H         -1.68684        5.26697        5.48508
H         -0.84555        6.35666        4.30524
H         -0.00095        4.88809        4.94008
N         -3.93925        1.92825        1.46495
C         -3.43015        0.56220        1.66398
H         -2.70621        0.29790        0.86351
H         -4.25636       -0.18445        1.64886
H         -2.85118        0.50170        2.60575
C         -4.55640        2.01277        0.12488
H         -4.68974        3.07436       -0.17482
H         -5.55054        1.51023        0.09171
H         -3.99110        1.44356       -0.62435
C         -4.77632        2.12516        3.94105
C         -4.57568        0.86278        4.53882
C         -4.38006        0.74788        5.91925
C         -4.39655        1.88422        6.72840
C         -4.62617        3.13725        6.16142
C         -4.82691        3.25676        4.78349
H         -4.24441        1.79239        7.79620
H         -4.65253        4.01808        6.79006
H         -4.58315       -0.04462        3.95521
H         -4.22197       -0.22647        6.36362
H         -5.01211        4.24140        4.37196
C         -5.02924        2.28939        2.44120
H         -5.31217        3.34809        2.24498
H         -5.94166        1.67851        2.24934
O         -1.29928        2.76597        0.05784
C         -1.44350        2.41801       -1.24048
O         -2.49643        2.54499       -1.83558
C         -0.20330        2.06603       -2.00418
H         -0.28049        1.04634       -2.43181
H          0.68302        2.10753       -1.33304
H         -0.04793        2.80200       -2.82186
