39
Coordinates from ORCA-job reaction-4-dhsgs_optts_Compound_2_IRC_Full E -1288.404971542283
  Ir      0.569126     -0.737286      0.410031
  C      -0.024380     -2.320636      1.679168
  C       1.341098     -2.017482      1.983654
  C       1.241589     -2.731463     -0.204894
  C      -0.059482     -2.810585      0.321059
  C       2.113639     -2.225351      0.826839
  N      -1.067327      0.227498     -0.493974
  C      -2.363221      0.526232      0.123774
  C      -3.114428      1.648464     -0.569626
  H      -3.992317      1.903299      0.022650
  H      -3.480117      1.362920     -1.557512
  H      -2.505362      2.547919     -0.652758
  C      -3.188056     -0.752944      0.205159
  H      -2.118168      0.843054      1.139206
  H      -4.126312     -0.549070      0.718826
  H      -3.428985     -1.133786     -0.787879
  H      -2.677375     -1.535705      0.764324
  C      -0.737065      0.567340     -1.668988
  C       0.659222      0.236478     -1.965732
  H      -1.393959      1.070701     -2.371577
  C       1.734201      0.650670     -1.174824
  C       2.963981      0.098914     -1.654095
  S       1.160042     -0.744639     -3.273120
  C       2.802936     -0.661883     -2.760602
  H       1.672256      1.543381     -0.564211
  H       3.921205      0.301957     -1.197251
  H       3.565859     -1.171497     -3.326950
  H      -0.850095     -2.276367      2.371896
  H       1.694024     -1.588663      2.910158
  H       3.179263     -2.077003      0.735968
  O       0.164114      2.611840      0.448447
  O       0.644781      0.821290      1.704818
  C       0.422361      2.095297      1.519830
  C       0.527218      2.889653      2.798539
  H       0.331476      3.942302      2.613159
  H       1.521437      2.784496      3.233006
  H      -0.180757      2.520304      3.540999
  H       1.546230     -3.029545     -1.196755
  H      -0.932875     -3.160048     -0.209193
39
Coordinates from ORCA-job reaction-4-dhsgs_optts_Compound_2_IRC_Full E -1288.404920423588
  Ir      0.569401     -0.737234      0.408780
  C      -0.023973     -2.320482      1.678757
  C       1.341248     -2.017379      1.983338
  C       1.241865     -2.731928     -0.204738
  C      -0.059269     -2.810801      0.320991
  C       2.113861     -2.225680      0.826777
  N      -1.067779      0.227619     -0.494194
  C      -2.363308      0.526460      0.123768
  C      -3.114514      1.648499     -0.569540
  H      -3.992379      1.903359      0.022525
  H      -3.480137      1.362931     -1.557361
  H      -2.505535      2.547839     -0.652742
  C      -3.188055     -0.752839      0.205254
  H      -2.118214      0.842906      1.139185
  H      -4.126412     -0.549209      0.718848
  H      -3.429003     -1.133786     -0.787850
  H      -2.677409     -1.535768      0.764432
  C      -0.737469      0.567831     -1.668942
  C       0.658975      0.236457     -1.965870
  H      -1.394316      1.070347     -2.371211
  C       1.733510      0.650368     -1.174145
  C       2.963775      0.098706     -1.653157
  S       1.160103     -0.744273     -3.273207
  C       2.802750     -0.662005     -2.759960
  H       1.670971      1.542837     -0.563181
  H       3.921173      0.301473     -1.196454
  H       3.565448     -1.170763     -3.326254
  H      -0.849313     -2.275264      2.370900
  H       1.693741     -1.588112      2.909447
  H       3.179641     -2.078222      0.735918
  O       0.164545      2.613501      0.448054
  O       0.645394      0.820950      1.704877
  C       0.422790      2.094600      1.518555
  C       0.527208      2.889444      2.798125
  H       0.331352      3.942828      2.613226
  H       1.521450      2.784469      3.233125
  H      -0.180963      2.520229      3.541195
  H       1.546658     -3.030832     -1.195885
  H      -0.932310     -3.159751     -0.209284
39
Coordinates from ORCA-job reaction-4-dhsgs_optts_Compound_2_IRC_Full E -1288.404591347489
  Ir      0.575072     -0.738152      0.404087
  C      -0.024534     -2.314119      1.677336
  C       1.342427     -2.013917      1.981784
  C       1.247176     -2.741440     -0.205998
  C      -0.056493     -2.809436      0.318764
  C       2.117926     -2.232418      0.826464
  N      -1.067442      0.227788     -0.495251
  C      -2.363596      0.525753      0.124855
  C      -3.115062      1.648548     -0.569206
  H      -3.993708      1.904321      0.022052
  H      -3.480395      1.363263     -1.557567
  H      -2.506214      2.548385     -0.653217
  C      -3.188973     -0.753144      0.205825
  H      -2.119366      0.842808      1.140891
  H      -4.127739     -0.549876      0.719347
  H      -3.428672     -1.133325     -0.787665
  H      -2.677282     -1.535217      0.764769
  C      -0.740879      0.568734     -1.671263
  C       0.657703      0.240267     -1.964593
  H      -1.402078      1.072166     -2.373302
  C       1.731367      0.647893     -1.167166
  C       2.962023      0.095308     -1.646522
  S       1.160359     -0.741679     -3.269796
  C       2.803270     -0.663631     -2.755020
  H       1.658334      1.540530     -0.554826
  H       3.922022      0.298595     -1.195274
  H       3.566711     -1.169098     -3.327199
  H      -0.850730     -2.270344      2.371947
  H       1.691115     -1.584473      2.910845
  H       3.184016     -2.083170      0.734072
  O       0.168616      2.613082      0.443652
  O       0.646933      0.823684      1.695378
  C       0.423560      2.098633      1.515819
  C       0.527467      2.889103      2.798327
  H       0.329890      3.940612      2.614311
  H       1.520451      2.784172      3.235903
  H      -0.179335      2.523315      3.542909
  H       1.551073     -3.038753     -1.201268
  H      -0.930897     -3.159229     -0.209336
39
Coordinates from ORCA-job reaction-4-dhsgs_optts_Compound_2_IRC_Full E -1288.403844343466
  Ir      0.589123     -0.738562      0.397730
  C      -0.027908     -2.307880      1.677995
  C       1.342036     -2.012184      1.984176
  C       1.249733     -2.747480     -0.210475
  C      -0.056169     -2.810489      0.318430
  C       2.121561     -2.236797      0.826352
  N      -1.068437      0.226792     -0.495140
  C      -2.364847      0.525959      0.125880
  C      -3.115665      1.649201     -0.569439
  H      -3.994219      1.904593      0.021961
  H      -3.480507      1.363323     -1.558021
  H      -2.506318      2.548861     -0.653528
  C      -3.189471     -0.753289      0.206114
  H      -2.119863      0.842818      1.141786
  H      -4.128032     -0.549921      0.719506
  H      -3.428511     -1.133205     -0.788018
  H      -2.676939     -1.535178      0.765106
  C      -0.746663      0.569249     -1.671600
  C       0.655177      0.243810     -1.966641
  H      -1.405559      1.073652     -2.375494
  C       1.728648      0.648140     -1.160745
  C       2.963053      0.090670     -1.642961
  S       1.157273     -0.742519     -3.269449
  C       2.804663     -0.665179     -2.754757
  H       1.650789      1.542552     -0.547313
  H       3.926384      0.298711     -1.193658
  H       3.570061     -1.169914     -3.329592
  H      -0.857523     -2.269475      2.378918
  H       1.691369     -1.580843      2.916892
  H       3.190013     -2.083565      0.732094
  O       0.168901      2.614275      0.436579
  O       0.646993      0.825385      1.695265
  C       0.424214      2.099299      1.508675
  C       0.528403      2.889068      2.800665
  H       0.327958      3.941809      2.613330
  H       1.524782      2.783304      3.239803
  H      -0.181996      2.523713      3.548172
  H       1.555279     -3.043363     -1.210936
  H      -0.934299     -3.161318     -0.211643
39
Coordinates from ORCA-job reaction-4-dhsgs_optts_Compound_2_IRC_Full E -1288.402415335460
  Ir      0.600968     -0.737092      0.392096
  C      -0.032084     -2.303755      1.680450
  C       1.341848     -2.011544      1.986729
  C       1.251112     -2.750438     -0.213626
  C      -0.058209     -2.812859      0.317538
  C       2.124290     -2.239218      0.826307
  N      -1.070973      0.225817     -0.494208
  C      -2.365363      0.526531      0.126017
  C      -3.115915      1.649496     -0.569715
  H      -3.994474      1.904680      0.022002
  H      -3.480542      1.363326     -1.558271
  H      -2.506298      2.549139     -0.653671
  C      -3.189334     -0.753183      0.206047
  H      -2.120030      0.842807      1.142304
  H      -4.128299     -0.549818      0.719691
  H      -3.428496     -1.133245     -0.788422
  H      -2.676637     -1.535448      0.765457
  C      -0.749812      0.569383     -1.671431
  C       0.652048      0.246480     -1.968839
  H      -1.407043      1.074495     -2.376924
  C       1.727440      0.645737     -1.158974
  C       2.964308      0.088012     -1.640175
  S       1.154383     -0.743691     -3.269749
  C       2.805728     -0.666294     -2.755669
  H       1.646599      1.546783     -0.540847
  H       3.929940      0.299302     -1.192422
  H       3.572613     -1.170786     -3.331218
  H      -0.862227     -2.269677      2.383891
  H       1.692171     -1.578286      2.921794
  H       3.194295     -2.083024      0.730741
  O       0.166524      2.619680      0.425035
  O       0.647479      0.821829      1.698550
  C       0.425934      2.098141      1.507157
  C       0.528496      2.889554      2.802763
  H       0.326575      3.943661      2.612214
  H       1.529485      2.782478      3.242814
  H      -0.184876      2.523239      3.552564
  H       1.558168     -3.045987     -1.218345
  H      -0.936619     -3.162834     -0.213175
39
Coordinates from ORCA-job reaction-4-dhsgs_optts_Compound_2_IRC_Full E -1288.400628209899
  Ir      0.608044     -0.735684      0.388625
  C      -0.035089     -2.301469      1.682599
  C       1.341890     -2.011286      1.988354
  C       1.251923     -2.751800     -0.215303
  C      -0.060158     -2.814723      0.316604
  C       2.125917     -2.240457      0.826261
  N      -1.072937      0.225214     -0.493418
  C      -2.365513      0.526943      0.125917
  C      -3.115997      1.649588     -0.569895
  H      -3.994615      1.904720      0.022052
  H      -3.480551      1.363326     -1.558387
  H      -2.506271      2.549289     -0.653737
  C      -3.189113     -0.753072      0.205924
  H      -2.120087      0.842796      1.142594
  H      -4.128503     -0.549733      0.719831
  H      -3.428511     -1.133292     -0.788678
  H      -2.676454     -1.535671      0.765687
  C      -0.751151      0.569347     -1.671288
  C       0.649902      0.248131     -1.970109
  H      -1.407746      1.074957     -2.377734
  C       1.727040      0.643279     -1.159011
  C       2.965025      0.086853     -1.638301
  S       1.152628     -0.744443     -3.269993
  C       2.806342     -0.666981     -2.756463
  H       1.644447      1.550025     -0.536756
  H       3.932006      0.299704     -1.191731
  H       3.574059     -1.171310     -3.332088
  H      -0.864640     -2.269949      2.386496
  H       1.692722     -1.576856      2.924632
  H       3.196668     -2.082577      0.729995
  O       0.164253      2.624481      0.415562
  O       0.647916      0.818287      1.701069
  C       0.427534      2.096822      1.508728
  C       0.528324      2.889932      2.803934
  H       0.325803      3.944906      2.611525
  H       1.532503      2.781961      3.244561
  H      -0.186674      2.522825      3.555133
  H       1.559775     -3.047361     -1.222628
  H      -0.937688     -3.163597     -0.213879
39
Coordinates from ORCA-job reaction-4-dhsgs_optts_Compound_2_IRC_Full E -1288.405741924596
  Ir      0.549875     -0.731468      0.553780
  C       0.021273     -2.460390      1.594752
  C       1.359740     -2.120128      1.996321
  C       1.360929     -2.569052     -0.273607
  C       0.057776     -2.801849      0.190716
  C       2.166424     -2.137100      0.848474
  N      -0.961664      0.228627     -0.540974
  C      -2.280261      0.561548      0.023489
  C      -2.997303      1.678484     -0.714750
  H      -3.876785      1.967400     -0.140992
  H      -3.357306      1.376135     -1.699603
  H      -2.368130      2.562499     -0.815963
  C      -3.121880     -0.706606      0.102841
  H      -2.075851      0.900391      1.040289
  H      -4.077259     -0.482072      0.574586
  H      -3.327623     -1.109108     -0.889853
  H      -2.641188     -1.480977      0.700087
  C      -0.649603      0.494134     -1.744313
  C       0.718299      0.218493     -2.155038
  H      -1.359620      0.927759     -2.442537
  C       1.854634      0.641345     -1.490868
  C       3.035154      0.136048     -2.098754
  S       1.097403     -0.749989     -3.517167
  C       2.776144     -0.628485     -3.192760
  H       1.833772      1.429335     -0.745107
  H       4.033319      0.372977     -1.761688
  H       3.486464     -1.111680     -3.846066
  H      -0.829992     -2.555377      2.253934
  H       1.661303     -1.806713      2.985448
  H       3.211974     -1.868693      0.804016
  O       0.391852      2.508010      0.458061
  O       0.521726      0.779815      1.864054
  C       0.420072      2.058203      1.584212
  C       0.353292      2.923082      2.815256
  H       0.214442      3.965015      2.541348
  H       1.273982      2.830495      3.392244
  H      -0.459998      2.609791      3.469645
  H       1.710543     -2.692772     -1.288188
  H      -0.781540     -3.135487     -0.402081
39
Coordinates from ORCA-job reaction-4-dhsgs_optts_Compound_2_IRC_Full E -1288.403182791648
  Ir      0.491705     -0.727253      0.718934
  C       0.077636     -2.619311      1.506905
  C       1.377590     -2.228969      2.004288
  C       1.469936     -2.386304     -0.331912
  C       0.175710     -2.788974      0.064828
  C       2.206932     -2.033743      0.870687
  N      -0.850392      0.232041     -0.588530
  C      -2.195008      0.596152     -0.078939
  C      -2.878609      1.707380     -0.859605
  H      -3.758955      2.030080     -0.304035
  H      -3.234061      1.388944     -1.840820
  H      -2.229989      2.575709     -0.978190
  C      -3.054647     -0.660141     -0.000243
  H      -2.031614      0.957986      0.937983
  H      -4.026016     -0.414411      0.429341
  H      -3.226734     -1.084923     -0.991028
  H      -2.605922     -1.426284      0.634487
  C      -0.548056      0.418921     -1.817338
  C       0.786697      0.188855     -2.339968
  H      -1.311494      0.780560     -2.507340
  C       1.982228      0.639411     -1.822725
  C       3.105284      0.185242     -2.559208
  S       1.042178     -0.755536     -3.764340
  C       2.745946     -0.589988     -3.629058
  H       2.023097      1.308646     -0.953458
  H       4.134633      0.446251     -2.331645
  H       3.398869     -1.052049     -4.360045
  H      -0.795344     -2.840805      2.121373
  H       1.629884     -2.036571      3.046264
  H       3.227281     -1.654809      0.878037
  O       0.619451      2.391540      0.500559
  O       0.395535      0.741344      2.027038
  C       0.412610      2.019585      1.659695
  C       0.178260      2.956233      2.826577
  H       0.103082      3.985125      2.471171
  H       1.015462      2.879029      3.539927
  H      -0.733323      2.696757      3.384157
  H       1.861311     -2.338184     -1.353747
  H      -0.625393     -3.107377     -0.590283
39
Coordinates from ORCA-job reaction-4-dhsgs_optts_Compound_2_IRC_Full E -1288.404659784535
  Ir      0.491390     -0.730121      0.715096
  C       0.079599     -2.619561      1.505257
  C       1.377326     -2.228190      2.002605
  C       1.468702     -2.385850     -0.330064
  C       0.177076     -2.787200      0.066472
  C       2.205628     -2.032685      0.871323
  N      -0.849435      0.232496     -0.588790
  C      -2.194831      0.595891     -0.079208
  C      -2.878566      1.707428     -0.859610
  H      -3.758785      2.029965     -0.304068
  H      -3.234036      1.388975     -1.840772
  H      -2.229993      2.575583     -0.978130
  C      -3.054740     -0.660219     -0.000282
  H      -2.031472      0.957921      0.937664
  H      -4.025751     -0.414498      0.429229
  H      -3.226707     -1.084895     -0.990815
  H      -2.606148     -1.426091      0.634350
  C      -0.548180      0.419176     -1.816773
  C       0.788487      0.188057     -2.339487
  H      -1.310735      0.780227     -2.506755
  C       1.981520      0.639384     -1.819593
  C       3.104269      0.185258     -2.560023
  S       1.043482     -0.754731     -3.763692
  C       2.745464     -0.589114     -3.628239
  H       2.023577      1.307157     -0.957094
  H       4.132703      0.445796     -2.331905
  H       3.397741     -1.051497     -4.359140
  H      -0.793058     -2.840336      2.119534
  H       1.629708     -2.037212      3.043402
  H       3.225273     -1.655798      0.878542
  O       0.618229      2.388247      0.509873
  O       0.395596      0.745569      2.024506
  C       0.412597      2.019910      1.657700
  C       0.178830      2.955867      2.825765
  H       0.103506      3.984058      2.472078
  H       1.013278      2.879370      3.537632
  H      -0.731103      2.696779      3.382230
  H       1.859525     -2.338468     -1.349632
  H      -0.624505     -3.106717     -0.589472
39
Coordinates from ORCA-job reaction-4-dhsgs_optts_Compound_2_IRC_Full E -1288.405854828540
  Ir      0.490497     -0.733825      0.707834
  C       0.083193     -2.620338      1.502610
  C       1.376750     -2.226639      1.999349
  C       1.466842     -2.384641     -0.326060
  C       0.178537     -2.784400      0.068865
  C       2.203252     -2.030560      0.872245
  N      -0.847842      0.233205     -0.589151
  C      -2.194354      0.595438     -0.079702
  C      -2.878364      1.707375     -0.859664
  H      -3.758419      2.029695     -0.304090
  H      -3.233986      1.389055     -1.840705
  H      -2.229954      2.575359     -0.977996
  C      -3.054731     -0.660296     -0.000455
  H      -2.031109      0.957745      0.936922
  H      -4.025258     -0.414628      0.429021
  H      -3.226686     -1.084916     -0.990466
  H      -2.606616     -1.425769      0.634126
  C      -0.547385      0.419574     -1.816080
  C       0.790887      0.186312     -2.337893
  H      -1.309162      0.779667     -2.505629
  C       1.980788      0.637555     -1.815283
  C       3.101924      0.185842     -2.560619
  S       1.045697     -0.753102     -3.762369
  C       2.744451     -0.587362     -3.626886
  H       2.024780      1.305382     -0.963223
  H       4.128676      0.444887     -2.332433
  H       3.395326     -1.050239     -4.357162
  H      -0.788038     -2.839367      2.115488
  H       1.629401     -2.038429      3.037464
  H       3.221314     -1.657721      0.879764
  O       0.616980      2.384211      0.522264
  O       0.395545      0.750507      2.019639
  C       0.411661      2.020007      1.659272
  C       0.179581      2.955226      2.823776
  H       0.104456      3.982212      2.473820
  H       1.009381      2.880005      3.533217
  H      -0.726826      2.696602      3.378284
  H       1.855820     -2.339108     -1.341232
  H      -0.622240     -3.105139     -0.587388
39
Coordinates from ORCA-job reaction-4-dhsgs_optts_Compound_2_IRC_Full E -1288.406393876898
  Ir      0.488364     -0.732398      0.699068
  C       0.087463     -2.621860      1.499917
  C       1.375615     -2.224385      1.994738
  C       1.465029     -2.382114     -0.319720
  C       0.178284     -2.782118      0.070516
  C       2.200677     -2.027397      0.872677
  N      -0.846721      0.233608     -0.589830
  C      -2.193141      0.595049     -0.080569
  C      -2.877592      1.706843     -0.859888
  H      -3.757616      2.029013     -0.303967
  H      -3.233884      1.389204     -1.840791
  H      -2.229639      2.575103     -0.977729
  C      -3.054044     -0.660133     -0.001017
  H      -2.030117      0.957359      0.935517
  H      -4.024515     -0.414580      0.428677
  H      -3.226770     -1.085307     -0.990358
  H      -2.607345     -1.425597      0.634023
  C      -0.544103      0.419940     -1.815633
  C       0.790868      0.182035     -2.334206
  H      -1.306112      0.779266     -2.504164
  C       1.981045      0.630699     -1.812593
  C       3.098340      0.187086     -2.559346
  S       1.046655     -0.750882     -3.760662
  C       2.742165     -0.584246     -3.625542
  H       2.027619      1.306715     -0.968962
  H       4.122607      0.443979     -2.332785
  H       3.391408     -1.047874     -4.353954
  H      -0.780163     -2.838273      2.109161
  H       1.629388     -2.039633      3.028763
  H       3.216711     -1.659907      0.882572
  O       0.617360      2.384367      0.530550
  O       0.394109      0.746293      2.015096
  C       0.410076      2.019156      1.665349
  C       0.179392      2.954932      2.820975
  H       0.106282      3.981108      2.475422
  H       1.006103      2.880718      3.527930
  H      -0.722384      2.695143      3.372846
  H       1.850464     -2.340356     -1.329420
  H      -0.618704     -3.102513     -0.583897
39
Coordinates from ORCA-job reaction-4-dhsgs_optts_Compound_2_IRC_Full E -1288.406434976106
  Ir      0.488177     -0.732207      0.698647
  C       0.087559     -2.621436      1.499528
  C       1.375521     -2.223776      1.994285
  C       1.464734     -2.381562     -0.319582
  C       0.178254     -2.781912      0.070370
  C       2.200698     -2.026621      0.872662
  N      -0.846979      0.233677     -0.589915
  C      -2.192904      0.595047     -0.080870
  C      -2.877338      1.706773     -0.860053
  H      -3.757213      2.028660     -0.303895
  H      -3.233787      1.389231     -1.840924
  H      -2.229433      2.575059     -0.977670
  C      -3.053837     -0.660163     -0.001215
  H      -2.029646      0.957274      0.935182
  H      -4.024187     -0.414387      0.428487
  H      -3.226773     -1.085514     -0.990492
  H      -2.607456     -1.425655      0.634064
  C      -0.544046      0.419860     -1.815446
  C       0.790836      0.180394     -2.333223
  H      -1.305156      0.779556     -2.504261
  C       1.980589      0.629631     -1.811241
  C       3.097726      0.186576     -2.558943
  S       1.045546     -0.750846     -3.760747
  C       2.741110     -0.583601     -3.625807
  H       2.028524      1.307796     -0.969590
  H       4.122087      0.444290     -2.332353
  H       3.390635     -1.047227     -4.353578
  H      -0.779651     -2.838612      2.108778
  H       1.629704     -2.039318      3.028013
  H       3.217059     -1.659717      0.883560
  O       0.617981      2.385091      0.531274
  O       0.392841      0.745508      2.015431
  C       0.410249      2.017838      1.664693
  C       0.179411      2.954489      2.820838
  H       0.106753      3.981423      2.474942
  H       1.006675      2.880702      3.527696
  H      -0.723058      2.694253      3.372470
  H       1.850128     -2.340731     -1.328820
  H      -0.618912     -3.102354     -0.583874
39
Coordinates from ORCA-job reaction-4-dhsgs_optts_Compound_2_IRC_Full E -1288.406452140483
  Ir      0.488092     -0.732149      0.698474
  C       0.087598     -2.621264      1.499371
  C       1.375487     -2.223520      1.994108
  C       1.464671     -2.381357     -0.319561
  C       0.178257     -2.781809      0.070331
  C       2.200709     -2.026309      0.872642
  N      -0.847080      0.233667     -0.589829
  C      -2.192830      0.595038     -0.080990
  C      -2.877231      1.706742     -0.860122
  H      -3.757046      2.028514     -0.303861
  H      -3.233736      1.389245     -1.840991
  H      -2.229335      2.575046     -0.977652
  C      -3.053753     -0.660180     -0.001299
  H      -2.029452      0.957244      0.935047
  H      -4.024052     -0.414295      0.428399
  H      -3.226764     -1.085602     -0.990548
  H      -2.607498     -1.425673      0.634073
  C      -0.544043      0.419821     -1.815464
  C       0.790810      0.179740     -2.332765
  H      -1.304747      0.779704     -2.504325
  C       1.980414      0.629187     -1.810691
  C       3.097501      0.186367     -2.558766
  S       1.045122     -0.750814     -3.760718
  C       2.740667     -0.583340     -3.625888
  H       2.028873      1.308214     -0.969863
  H       4.121772      0.444386     -2.332187
  H       3.390290     -1.046939     -4.353475
  H      -0.779478     -2.838765      2.108647
  H       1.629843     -2.039149      3.027742
  H       3.217185     -1.659620      0.883974
  O       0.618381      2.385345      0.531118
  O       0.392272      0.745289      2.015414
  C       0.410180      2.017378      1.665112
  C       0.179413      2.954324      2.820770
  H       0.106951      3.981367      2.474771
  H       1.006840      2.880676      3.527547
  H      -0.723238      2.693903      3.372254
  H       1.850023     -2.340882     -1.328662
  H      -0.619005     -3.102289     -0.583884
