39
Coordinates from ORCA-job reaction-4-dhsgs_optts_Compound_2_IRC_F E -1288.403182791648
  Ir      0.491705     -0.727253      0.718934
  C       0.077636     -2.619311      1.506905
  C       1.377590     -2.228969      2.004288
  C       1.469936     -2.386304     -0.331912
  C       0.175710     -2.788974      0.064828
  C       2.206932     -2.033743      0.870687
  N      -0.850392      0.232041     -0.588530
  C      -2.195008      0.596152     -0.078939
  C      -2.878609      1.707380     -0.859605
  H      -3.758955      2.030080     -0.304035
  H      -3.234061      1.388944     -1.840820
  H      -2.229989      2.575709     -0.978190
  C      -3.054647     -0.660141     -0.000243
  H      -2.031614      0.957986      0.937983
  H      -4.026016     -0.414411      0.429341
  H      -3.226734     -1.084923     -0.991028
  H      -2.605922     -1.426284      0.634487
  C      -0.548056      0.418921     -1.817338
  C       0.786697      0.188855     -2.339968
  H      -1.311494      0.780560     -2.507340
  C       1.982228      0.639411     -1.822725
  C       3.105284      0.185242     -2.559208
  S       1.042178     -0.755536     -3.764340
  C       2.745946     -0.589988     -3.629058
  H       2.023097      1.308646     -0.953458
  H       4.134633      0.446251     -2.331645
  H       3.398869     -1.052049     -4.360045
  H      -0.795344     -2.840805      2.121373
  H       1.629884     -2.036571      3.046264
  H       3.227281     -1.654809      0.878037
  O       0.619451      2.391540      0.500559
  O       0.395535      0.741344      2.027038
  C       0.412610      2.019585      1.659695
  C       0.178260      2.956233      2.826577
  H       0.103082      3.985125      2.471171
  H       1.015462      2.879029      3.539927
  H      -0.733323      2.696757      3.384157
  H       1.861311     -2.338184     -1.353747
  H      -0.625393     -3.107377     -0.590283
39
Coordinates from ORCA-job reaction-4-dhsgs_optts_Compound_2_IRC_F E -1288.404659784535
  Ir      0.491390     -0.730121      0.715096
  C       0.079599     -2.619561      1.505257
  C       1.377326     -2.228190      2.002605
  C       1.468702     -2.385850     -0.330064
  C       0.177076     -2.787200      0.066472
  C       2.205628     -2.032685      0.871323
  N      -0.849435      0.232496     -0.588790
  C      -2.194831      0.595891     -0.079208
  C      -2.878566      1.707428     -0.859610
  H      -3.758785      2.029965     -0.304068
  H      -3.234036      1.388975     -1.840772
  H      -2.229993      2.575583     -0.978130
  C      -3.054740     -0.660219     -0.000282
  H      -2.031472      0.957921      0.937664
  H      -4.025751     -0.414498      0.429229
  H      -3.226707     -1.084895     -0.990815
  H      -2.606148     -1.426091      0.634350
  C      -0.548180      0.419176     -1.816773
  C       0.788487      0.188057     -2.339487
  H      -1.310735      0.780227     -2.506755
  C       1.981520      0.639384     -1.819593
  C       3.104269      0.185258     -2.560023
  S       1.043482     -0.754731     -3.763692
  C       2.745464     -0.589114     -3.628239
  H       2.023577      1.307157     -0.957094
  H       4.132703      0.445796     -2.331905
  H       3.397741     -1.051497     -4.359140
  H      -0.793058     -2.840336      2.119534
  H       1.629708     -2.037212      3.043402
  H       3.225273     -1.655798      0.878542
  O       0.618229      2.388247      0.509873
  O       0.395596      0.745569      2.024506
  C       0.412597      2.019910      1.657700
  C       0.178830      2.955867      2.825765
  H       0.103506      3.984058      2.472078
  H       1.013278      2.879370      3.537632
  H      -0.731103      2.696779      3.382230
  H       1.859525     -2.338468     -1.349632
  H      -0.624505     -3.106717     -0.589472
39
Coordinates from ORCA-job reaction-4-dhsgs_optts_Compound_2_IRC_F E -1288.405854828540
  Ir      0.490497     -0.733825      0.707834
  C       0.083193     -2.620338      1.502610
  C       1.376750     -2.226639      1.999349
  C       1.466842     -2.384641     -0.326060
  C       0.178537     -2.784400      0.068865
  C       2.203252     -2.030560      0.872245
  N      -0.847842      0.233205     -0.589151
  C      -2.194354      0.595438     -0.079702
  C      -2.878364      1.707375     -0.859664
  H      -3.758419      2.029695     -0.304090
  H      -3.233986      1.389055     -1.840705
  H      -2.229954      2.575359     -0.977996
  C      -3.054731     -0.660296     -0.000455
  H      -2.031109      0.957745      0.936922
  H      -4.025258     -0.414628      0.429021
  H      -3.226686     -1.084916     -0.990466
  H      -2.606616     -1.425769      0.634126
  C      -0.547385      0.419574     -1.816080
  C       0.790887      0.186312     -2.337893
  H      -1.309162      0.779667     -2.505629
  C       1.980788      0.637555     -1.815283
  C       3.101924      0.185842     -2.560619
  S       1.045697     -0.753102     -3.762369
  C       2.744451     -0.587362     -3.626886
  H       2.024780      1.305382     -0.963223
  H       4.128676      0.444887     -2.332433
  H       3.395326     -1.050239     -4.357162
  H      -0.788038     -2.839367      2.115488
  H       1.629401     -2.038429      3.037464
  H       3.221314     -1.657721      0.879764
  O       0.616980      2.384211      0.522264
  O       0.395545      0.750507      2.019639
  C       0.411661      2.020007      1.659272
  C       0.179581      2.955226      2.823776
  H       0.104456      3.982212      2.473820
  H       1.009381      2.880005      3.533217
  H      -0.726826      2.696602      3.378284
  H       1.855820     -2.339108     -1.341232
  H      -0.622240     -3.105139     -0.587388
39
Coordinates from ORCA-job reaction-4-dhsgs_optts_Compound_2_IRC_F E -1288.406393876898
  Ir      0.488364     -0.732398      0.699068
  C       0.087463     -2.621860      1.499917
  C       1.375615     -2.224385      1.994738
  C       1.465029     -2.382114     -0.319720
  C       0.178284     -2.782118      0.070516
  C       2.200677     -2.027397      0.872677
  N      -0.846721      0.233608     -0.589830
  C      -2.193141      0.595049     -0.080569
  C      -2.877592      1.706843     -0.859888
  H      -3.757616      2.029013     -0.303967
  H      -3.233884      1.389204     -1.840791
  H      -2.229639      2.575103     -0.977729
  C      -3.054044     -0.660133     -0.001017
  H      -2.030117      0.957359      0.935517
  H      -4.024515     -0.414580      0.428677
  H      -3.226770     -1.085307     -0.990358
  H      -2.607345     -1.425597      0.634023
  C      -0.544103      0.419940     -1.815633
  C       0.790868      0.182035     -2.334206
  H      -1.306112      0.779266     -2.504164
  C       1.981045      0.630699     -1.812593
  C       3.098340      0.187086     -2.559346
  S       1.046655     -0.750882     -3.760662
  C       2.742165     -0.584246     -3.625542
  H       2.027619      1.306715     -0.968962
  H       4.122607      0.443979     -2.332785
  H       3.391408     -1.047874     -4.353954
  H      -0.780163     -2.838273      2.109161
  H       1.629388     -2.039633      3.028763
  H       3.216711     -1.659907      0.882572
  O       0.617360      2.384367      0.530550
  O       0.394109      0.746293      2.015096
  C       0.410076      2.019156      1.665349
  C       0.179392      2.954932      2.820975
  H       0.106282      3.981108      2.475422
  H       1.006103      2.880718      3.527930
  H      -0.722384      2.695143      3.372846
  H       1.850464     -2.340356     -1.329420
  H      -0.618704     -3.102513     -0.583897
39
Coordinates from ORCA-job reaction-4-dhsgs_optts_Compound_2_IRC_F E -1288.406434976106
  Ir      0.488177     -0.732207      0.698647
  C       0.087559     -2.621436      1.499528
  C       1.375521     -2.223776      1.994285
  C       1.464734     -2.381562     -0.319582
  C       0.178254     -2.781912      0.070370
  C       2.200698     -2.026621      0.872662
  N      -0.846979      0.233677     -0.589915
  C      -2.192904      0.595047     -0.080870
  C      -2.877338      1.706773     -0.860053
  H      -3.757213      2.028660     -0.303895
  H      -3.233787      1.389231     -1.840924
  H      -2.229433      2.575059     -0.977670
  C      -3.053837     -0.660163     -0.001215
  H      -2.029646      0.957274      0.935182
  H      -4.024187     -0.414387      0.428487
  H      -3.226773     -1.085514     -0.990492
  H      -2.607456     -1.425655      0.634064
  C      -0.544046      0.419860     -1.815446
  C       0.790836      0.180394     -2.333223
  H      -1.305156      0.779556     -2.504261
  C       1.980589      0.629631     -1.811241
  C       3.097726      0.186576     -2.558943
  S       1.045546     -0.750846     -3.760747
  C       2.741110     -0.583601     -3.625807
  H       2.028524      1.307796     -0.969590
  H       4.122087      0.444290     -2.332353
  H       3.390635     -1.047227     -4.353578
  H      -0.779651     -2.838612      2.108778
  H       1.629704     -2.039318      3.028013
  H       3.217059     -1.659717      0.883560
  O       0.617981      2.385091      0.531274
  O       0.392841      0.745508      2.015431
  C       0.410249      2.017838      1.664693
  C       0.179411      2.954489      2.820838
  H       0.106753      3.981423      2.474942
  H       1.006675      2.880702      3.527696
  H      -0.723058      2.694253      3.372470
  H       1.850128     -2.340731     -1.328820
  H      -0.618912     -3.102354     -0.583874
39
Coordinates from ORCA-job reaction-4-dhsgs_optts_Compound_2_IRC_F E -1288.406452140483
  Ir      0.488092     -0.732149      0.698474
  C       0.087598     -2.621264      1.499371
  C       1.375487     -2.223520      1.994108
  C       1.464671     -2.381357     -0.319561
  C       0.178257     -2.781809      0.070331
  C       2.200709     -2.026309      0.872642
  N      -0.847080      0.233667     -0.589829
  C      -2.192830      0.595038     -0.080990
  C      -2.877231      1.706742     -0.860122
  H      -3.757046      2.028514     -0.303861
  H      -3.233736      1.389245     -1.840991
  H      -2.229335      2.575046     -0.977652
  C      -3.053753     -0.660180     -0.001299
  H      -2.029452      0.957244      0.935047
  H      -4.024052     -0.414295      0.428399
  H      -3.226764     -1.085602     -0.990548
  H      -2.607498     -1.425673      0.634073
  C      -0.544043      0.419821     -1.815464
  C       0.790810      0.179740     -2.332765
  H      -1.304747      0.779704     -2.504325
  C       1.980414      0.629187     -1.810691
  C       3.097501      0.186367     -2.558766
  S       1.045122     -0.750814     -3.760718
  C       2.740667     -0.583340     -3.625888
  H       2.028873      1.308214     -0.969863
  H       4.121772      0.444386     -2.332187
  H       3.390290     -1.046939     -4.353475
  H      -0.779478     -2.838765      2.108647
  H       1.629843     -2.039149      3.027742
  H       3.217185     -1.659620      0.883974
  O       0.618381      2.385345      0.531118
  O       0.392272      0.745289      2.015414
  C       0.410180      2.017378      1.665112
  C       0.179413      2.954324      2.820770
  H       0.106951      3.981367      2.474771
  H       1.006840      2.880676      3.527547
  H      -0.723238      2.693903      3.372254
  H       1.850023     -2.340882     -1.328662
  H      -0.619005     -3.102289     -0.583884
