! EnGrad PBEh-3c
%output 
xyzfile=True 
end 
%scf 
maxiter 250 
end
%output
Print[P_Hirshfeld] = 1
end
% maxcore
4000
*xyz 1 1
Ir   0.44987008  -0.68168401   0.95018187 
C   -0.07589285  -2.68171434   1.75085283 
C    0.92027255  -2.09068661   2.57478648 
C    1.77906609  -2.32968640   0.47434577 
C    0.50488354  -2.84529055   0.44430118 
C    2.06143155  -1.85264336   1.82981568 
N   -0.95980286   0.01568061  -0.41998913 
C   -2.40444240   0.10529660   0.02090139 
C   -2.86202598   1.53599073   0.23780162 
H   -3.89598539   1.53033309   0.61138682 
H   -2.83691325   2.11638958  -0.67533142 
H   -2.28049846   2.03855397   0.98999389 
C   -3.34553718  -0.62086391  -0.94284274 
H   -2.43889634  -0.39883642   0.96218676 
H   -4.33895179  -0.68240697  -0.46980243 
H   -3.49228370  -0.09232839  -1.88158958 
H   -3.02613466  -1.62866527  -1.15167471 
C   -0.67819344   0.28735348  -1.65226985 
C    0.60527887   0.19723508  -2.26934269 
H   -1.49239117   0.55248633  -2.29518520 
C    1.94576999   0.27054151  -1.61406508 
C    2.90191497   0.05384728  -2.66449822 
S    0.74076249   0.04663602  -3.99515663 
C    2.44831926  -0.04335065  -3.92179241 
H    2.21789569   0.91333443  -0.84258893 
H    3.96766630   0.07430363  -2.41468538 
H    3.03503265  -0.18092362  -4.81424251 
H   -0.95540515  -3.20555649   2.09426830 
H    0.79618154  -1.94942443   3.66227840 
H    2.99536177  -1.46164669   2.14606048 
O    1.59580014   1.63194655   0.84613695 
O   -0.08673812   0.99187465   2.06108218 
C    0.80160146   1.92943411   1.62460582 
C    0.68310475   3.32867302   2.24023768 
H    0.80559722   4.05647393   1.43138671 
H    1.53187660   3.48196284   2.91486295 
H   -0.22488994   3.49931575   2.76978191 
H    2.55619320  -2.48403208  -0.26755968 
H    0.05067994  -3.42669060  -0.34408086 
*
