! EnGrad PBEh-3c
%output 
xyzfile=True 
end 
%scf 
maxiter 250 
end
%output
Print[P_Hirshfeld] = 1
end
% maxcore
4000
*xyz 1 1
Ir   0.44625624  -0.68174731   0.95616246 
C   -0.07397929  -2.68046127   1.74239028 
C    0.91629382  -2.09133651   2.58662519 
C    1.79256832  -2.33078544   0.48017682 
C    0.50247523  -2.85036093   0.44484746 
C    2.05886197  -1.85452052   1.82515860 
N   -0.96083837   0.01547764  -0.42327457 
C   -2.40389551   0.10657491   0.01642991 
C   -2.86448967   1.53467356   0.24160778 
H   -3.89466420   1.52819031   0.61157149 
H   -2.83719307   2.11760952  -0.67400695 
H   -2.27811944   2.03701272   0.99497541 
C   -3.34842220  -0.61874893  -0.94057939 
H   -2.43895379  -0.40390471   0.96586896 
H   -4.33698465  -0.68204751  -0.47126400 
H   -3.49319805  -0.08990426  -1.88199338 
H   -3.02614715  -1.63056382  -1.15466915 
C   -0.67846309   0.28623933  -1.64908068 
C    0.62511610   0.19997930  -2.25772575 
H   -1.49681547   0.55378471  -2.29789424 
C    1.93086257   0.27141011  -1.64748308 
C    2.90799534   0.05414964  -2.64835066 
S    0.74108508   0.04512120  -3.99132868 
C    2.44166155  -0.04509478  -3.92663342 
H    2.21499766   0.90970288  -0.83366804 
H    3.96427625   0.07347385  -2.41567775 
H    3.03466692  -0.17996892  -4.81470253 
H   -0.95881928  -3.20292039   2.08948940 
H    0.79101428  -1.94712861   3.65608317 
H    2.99679540  -1.45848361   2.15387218 
O    1.62932681   1.61938925   0.81287673 
O   -0.07617132   1.00001152   2.05448448 
C    0.76005083   1.93386402   1.66146593 
C    0.69043591   3.32511332   2.23289197 
H    0.80499506   4.05732503   1.43133733 
H    1.53226303   3.48256535   2.91278294 
H   -0.22816930   3.50019635   2.77126617 
H    2.55770638  -2.47845056  -0.26522068 
H    0.05505114  -3.42390681  -0.34808105 
*
