! EnGrad PBEh-3c
%output 
xyzfile=True 
end 
%scf 
maxiter 250 
end
%output
Print[P_Hirshfeld] = 1
end
% maxcore
4000
*xyz 1 1
Ir   0.44526089  -0.68041075   0.96284453 
C   -0.07381792  -2.67972059   1.73521996 
C    0.91242541  -2.09323931   2.59259917 
C    1.80304697  -2.33431733   0.48775667 
C    0.50561969  -2.85416874   0.44522662 
C    2.05748354  -1.85528245   1.82519563 
N   -0.96315560   0.01455488  -0.42561389 
C   -2.40400545   0.10656702   0.01413344 
C   -2.86578400   1.53400575   0.24592288 
H   -3.89386700   1.52504235   0.61233302 
H   -2.83768023   2.11897315  -0.67121191 
H   -2.27546997   2.03444821   1.00138616 
C   -3.35061931  -0.61716865  -0.93974260 
H   -2.43893340  -0.40980905   0.96846024 
H   -4.33547534  -0.68150406  -0.47257440 
H   -3.49460164  -0.08673530  -1.88209714 
H   -3.02669359  -1.63176703  -1.15852405 
C   -0.67602985   0.28615207  -1.64854838 
C    0.64086718   0.20232349  -2.24732872 
H   -1.50106428   0.55498993  -2.30068332 
C    1.92162199   0.28332693  -1.67123095 
C    2.91063173   0.05204741  -2.64185275 
S    0.74092479   0.04304638  -3.98713104 
C    2.43699363  -0.04696805  -3.92616562 
H    2.20690915   0.89675240  -0.82999127 
H    3.96223670   0.07262625  -2.41520993 
H    3.03395167  -0.17865509  -4.81566619 
H   -0.96265565  -3.19880825   2.08205879 
H    0.78324543  -1.94345808   3.65170367 
H    2.99634817  -1.45494237   2.16372453 
O    1.63146180   1.61529223   0.80926833 
O   -0.06833576   1.00967118   2.05045436 
C    0.75380784   1.92461368   1.66353979 
C    0.69369245   3.32290353   2.22830591 
H    0.80458641   4.05806008   1.43010667 
H    1.53340820   3.48305086   2.90976247 
H   -0.22928701   3.50184157   2.77177503 
H    2.56147991  -2.47064849  -0.26293790 
H    0.06065959  -3.42057499  -0.35426766 
*
