! EnGrad PBEh-3c
%output 
xyzfile=True 
end 
%scf 
maxiter 250 
end
%output
Print[P_Hirshfeld] = 1
end
% maxcore
4000
*xyz 1 1
Ir   0.44501643  -0.67981540   0.98167227 
C   -0.07683560  -2.67755600   1.71967808 
C    0.90144528  -2.10013749   2.59528856 
C    1.82717536  -2.34794487   0.51023965 
C    0.52487297  -2.86316893   0.44458917 
C    2.05736447  -1.85437899   1.83743553 
N   -0.97000903   0.01176103  -0.43023708 
C   -2.40430812   0.10256877   0.01244607 
C   -2.86563978   1.53281955   0.25873560 
H   -3.89337216   1.51447337   0.61604281 
H   -2.83930980   2.12309762  -0.65965432 
H   -2.26778505   2.02505311   1.02177249 
C   -3.35440593  -0.61417497  -0.94127813 
H   -2.43867747  -0.42718463   0.97197923 
H   -4.33327058  -0.67982742  -0.47552725 
H   -3.49943885  -0.07653328  -1.88143259 
H   -3.02951642  -1.63262272  -1.17092533 
C   -0.66528558   0.28782773  -1.64880166 
C    0.66091337   0.21126248  -2.22909713 
H   -1.50868511   0.55732438  -2.30807620 
C    1.90999747   0.32731851  -1.72148143 
C    2.91408868   0.04663409  -2.64407417 
S    0.73964959   0.03503902  -3.97100970 
C    2.43093387  -0.05505705  -3.91948498 
H    2.17718731   0.84857062  -0.82044872 
H    3.96054200   0.06982814  -2.41115588 
H    3.02913642  -0.17435350  -4.81686718 
H   -0.97512671  -3.18256778   2.05496068 
H    0.75574926  -1.92969565   3.64531452 
H    2.99065334  -1.44445896   2.19553374 
O    1.63073084   1.59781718   0.80331876 
O   -0.05696832   1.02665578   2.04498388 
C    0.75407906   1.91451699   1.65928499 
C    0.69794573   3.31352362   2.21672282 
H    0.80339251   4.05964497   1.42464490 
H    1.53752633   3.48381762   2.89906822 
H   -0.22796647   3.50650952   2.77050920 
H    2.57664767  -2.44342715  -0.25672677 
H    0.07983232  -3.40871309  -0.37592573 
*
