! EnGrad PBEh-3c
%output 
xyzfile=True 
end 
%scf 
maxiter 250 
end
%output
Print[P_Hirshfeld] = 1
end
% maxcore
4000
*xyz 1 1
Ir   0.46555192  -0.69992671   0.99611776 
C   -0.08382091  -2.66816410   1.67293489 
C    0.85511731  -2.09953732   2.59770850 
C    1.89437969  -2.35873385   0.56667053 
C    0.60613934  -2.87774855   0.43034764 
C    2.05820774  -1.85304292   1.91903894 
N   -0.95969925   0.00333864  -0.41537970 
C   -2.39753327   0.07692412   0.02083954 
C   -2.84919110   1.50867677   0.30504185 
H   -3.88938071   1.47768713   0.64284764 
H   -2.83544360   2.13285254  -0.59025641 
H   -2.25465407   1.97763729   1.08581866 
C   -3.35683971  -0.60592224  -0.95863872 
H   -2.43671196  -0.47898768   0.95116683 
H   -4.33816660  -0.67752338  -0.48169671 
H   -3.51564958  -0.03705236  -1.87540902 
H   -3.04563016  -1.61511337  -1.22027933 
C   -0.67440614   0.30144793  -1.63385056 
C    0.62558966   0.27728190  -2.26707396 
H   -1.48798345   0.55275825  -2.31391339 
C    1.90823516   0.38398401  -1.74484298 
C    2.92449587   0.10190399  -2.68335137 
S    0.71977827  -0.01680447  -3.96631006 
C    2.42081163  -0.09937534  -3.93142717 
H    2.09856460   0.70069108  -0.75026225 
H    3.97799989   0.05872101  -2.40148394 
H    2.99754580  -0.17883374  -4.83390158 
H   -1.04115828  -3.10127070   1.93309489 
H    0.63673844  -1.87466663   3.63584546 
H    2.95228378  -1.40747687   2.32476315 
O    1.61277003   1.52032760   0.80535461 
O   -0.06295172   1.02440708   2.05959914 
C    0.77548708   1.90456882   1.62893166 
C    0.70926692   3.30731304   2.18145101 
H    0.79960624   4.05302878   1.39442979 
H    1.55418853   3.47731294   2.84934347 
H   -0.19595045   3.49932548   2.74204962 
H    2.64329171  -2.32971681  -0.21685699 
H    0.18201946  -3.34430317  -0.45081891 
*
