! EnGrad PBEh-3c
%output 
xyzfile=True 
end 
%scf 
maxiter 250 
end
%output
Print[P_Hirshfeld] = 1
end
% maxcore
4000
*xyz 1 1
Ir   0.51756813  -0.78777853   0.54648423 
C    0.13386417  -2.92281777   0.90213440 
C    0.02245752  -2.28152276   2.18030909 
C    2.14580006  -1.90814728   1.37748561 
C    1.46640532  -2.74824340   0.46081305 
C    1.24140734  -1.67332001   2.46223825 
N   -1.12550897  -0.16511714  -0.53170686 
C   -2.49352524  -0.18916555   0.00778625 
C   -2.74513807   0.93625117   1.00278488 
H   -3.73934358   0.86834107   1.44141028 
H   -2.66971351   1.89111429   0.48371991 
H   -2.03586519   0.92554735   1.82491087 
C   -3.63840227  -0.25358000  -0.99856086 
H   -2.57085829  -1.11662784   0.57784162 
H   -4.58585647  -0.42820113  -0.49174478 
H   -3.73102722   0.68466712  -1.54633862 
H   -3.50496459  -1.07390795  -1.70383276 
C   -0.92435122   0.20213273  -1.74261801 
C    0.37853280   0.17208429  -2.31593596 
H   -1.74031914   0.53593232  -2.37404999 
C    1.47145367  -0.20469749  -1.58039781 
C    2.66125760  -0.30934670  -2.33683098 
S    0.82116638   0.40660537  -3.94674031 
C    2.44994354   0.05488798  -3.63983221 
H    2.25530587   1.27987111  -0.88711318 
H    3.65411965  -0.54116125  -1.97376296 
H    3.19684183   0.06421732  -4.41926739 
H   -0.55417369  -3.64785291   0.48771962 
H   -0.80651856  -2.36494162   2.86739280 
H    1.48118476  -1.18181038   3.39341499 
O    2.11009914   2.19265052   0.07597147 
O    0.49606460   1.23968781   1.22981984 
C    1.17390165   2.22691627   0.94711721 
C    1.04567769   3.51668909   1.66300308 
H    0.91645048   4.33378699   0.95454163 
H    1.94386419   3.74515397   2.23773536 
H    0.20057726   3.49270309   2.34324100 
H    3.19249526  -1.66485805   1.37789149 
H    1.88911502  -3.30611009  -0.35703225 
*
