! EnGrad PBEh-3c
%output 
xyzfile=True 
end 
%scf 
maxiter 250 
end
%output
Print[P_Hirshfeld] = 1
end
% maxcore
4000
*xyz 1 1
Ir   0.62298430  -0.77001461   0.48208902 
C    0.05826013  -2.92600477   1.10721485 
C    0.14948259  -2.19334778   2.30457033 
C    2.18624213  -2.06705579   1.21602824 
C    1.27038831  -2.81201821   0.38609368 
C    1.49190727  -1.71012591   2.38111246 
N   -1.11163811  -0.13900011  -0.54207939 
C   -2.49863181  -0.14550006   0.03181882 
C   -2.79110245   1.11023752   0.84129474 
H   -3.81516436   1.04941371   1.21378801 
H   -2.71862820   2.00724416   0.22574062 
H   -2.13381027   1.19906744   1.70003189 
C   -3.56731212  -0.35727858  -1.02702873 
H   -2.51717903  -1.00284067   0.70430334 
H   -4.51516857  -0.51117186  -0.51265870 
H   -3.71338441   0.50225065  -1.68357252 
H   -3.37927625  -1.24284718  -1.63070267 
C   -0.88600468   0.23059679  -1.75167713 
C    0.44807637   0.17256821  -2.27506834 
H   -1.71669721   0.53943379  -2.36979892 
C    1.51218519  -0.16196885  -1.44526781 
C    2.68463675  -0.20050942  -2.34445078 
S    0.77426823   0.34981585  -3.97804207 
C    2.42007063   0.01550477  -3.68856032 
H    2.07231049   1.35617734  -0.54532115 
H    3.71676399  -0.39662826  -2.07044233 
H    3.11946055   0.01536779  -4.53408739 
H   -0.75045055  -3.57270622   0.81468229 
H   -0.56597941  -2.18547803   3.11462773 
H    1.91530360  -1.21124718   3.23706341 
O    2.08230942   2.08924232   0.09349961 
O    0.42646969   1.16889519   1.35199525 
C    1.17570296   2.10136323   1.01988170 
C    0.98427964   3.45364886   1.77290499 
H    0.89175659   4.29222929   1.07479220 
H    1.85186425   3.68596571   2.40006230 
H    0.10315403   3.48459840   2.43803133 
H    3.21758584  -1.86822211   1.00256812 
H    1.50269255  -3.35269172  -0.51370052 
*
