! EnGrad PBEh-3c
%output 
xyzfile=True 
end 
%scf 
maxiter 250 
end
%output
Print[P_Hirshfeld] = 1
end
% maxcore
4000
*xyz 1 1
Ir   0.68063461  -0.76861429   0.49124559 
C   -0.03191109  -2.92021841   1.32823640 
C    0.34110041  -2.09281124   2.45431411 
C    2.22937312  -2.27074887   0.98884183 
C    1.04709513  -2.89047422   0.30691860 
C    1.78344217  -1.73604343   2.26801433 
N   -1.06773048  -0.11817581  -0.53557961 
C   -2.45771060  -0.08190297   0.02944476 
C   -2.84652463   1.30706777   0.64575384 
H   -3.90182616   1.26627115   0.94492163 
H   -2.77223580   2.13874851  -0.08640050 
H   -2.24555320   1.53869914   1.54157023 
C   -3.49215471  -0.48826962  -1.05054159 
H   -2.45702799  -0.85446656   0.85125224 
H   -4.43926861  -0.61330233  -0.53907471 
H   -3.68222932   0.27848169  -1.83862750 
H   -3.22843851  -1.44578440  -1.53899698 
C   -0.84915122   0.24931872  -1.74798184 
C    0.48204694   0.18016685  -2.23427123 
H   -1.68210669   0.55279734  -2.37736404 
C    1.58419882  -0.07089405  -1.42592465 
C    2.71522352  -0.10461475  -2.35446949 
S    0.72796759   0.26491084  -3.94363290 
C    2.38658116  -0.01929714  -3.71339018 
H    1.86111250   1.26678615  -0.27619574 
H    3.78190017  -0.22295199  -2.16960639 
H    3.01618474  -0.04600134  -4.62720209 
H   -1.00830835  -3.46393365   1.20290623 
H   -0.25479246  -1.96467094   3.39237352 
H    2.43591966  -1.23332754   3.03162991 
O    2.01786985   2.11393571   0.27035961 
O    0.40126913   1.07255231   1.44167151 
C    1.10574630   2.08274187   1.19918185 
C    0.91808177   3.35661753   1.89725996 
H    0.86779105   4.21913896   1.21580236 
H    1.74010625   3.60327785   2.58366855 
H    0.01347020   3.44479310   2.51966924 
H    3.24147590  -2.11760365   0.54482187 
H    1.03278181  -3.41527902  -0.68645925 
*
