! EnGrad PBEh-3c
%output 
xyzfile=True 
end 
%scf 
maxiter 250 
end
%output
Print[P_Hirshfeld] = 1
end
% maxcore
4000
*xyz 1 1
Ir   0.64088700  -0.76957976   0.48493250 
C    0.03025840  -2.92420787   1.17585078 
C    0.20898750  -2.16212721   2.35107169 
C    2.19963601  -2.13031054   1.14547787 
C    1.20104695  -2.83638191   0.36150668 
C    1.58244038  -1.71817432   2.34599102 
N   -1.09800306  -0.13253334  -0.54006095 
C   -2.48592416  -0.12575065   0.03108158 
C   -2.80831323   1.17136110   0.78057156 
H   -3.84207627   1.11675652   1.13029437 
H   -2.73527548   2.04808146   0.12880846 
H   -2.16851087   1.30453651   1.65082328 
C   -3.54397277  -0.39795647  -1.03433041 
H   -2.49849975  -0.95676464   0.74993679 
H   -4.49159863  -0.54288741  -0.52086192 
H   -3.70370952   0.43276154  -1.73172322 
H   -3.33243517  -1.30586721  -1.60222443 
C   -0.87456022   0.23641069  -1.75052960 
C    0.45862557   0.17492789  -2.26239923 
H   -1.70595548   0.54358370  -2.37214819 
C    1.53454827  -0.13368652  -1.43926099 
C    2.69413515  -0.17073033  -2.34756198 
S    0.75989005   0.32344949  -3.96735666 
C    2.40967082   0.00469740  -3.69627098 
H    2.00672517   1.32841784  -0.46174707 
H    3.73699135  -0.34269491  -2.10123669 
H    3.08738933  -0.00368975  -4.56300319 
H   -0.83052559  -3.53892804   0.93524117 
H   -0.46934356  -2.11690869   3.20087878 
H    2.07697547  -1.21810400   3.17326818 
O    2.06229839   2.09691059   0.14842163 
O    0.41864392   1.13897692   1.37984328 
C    1.15397865   2.09558056   1.07556149 
C    0.96372258   3.42351680   1.81152212 
H    0.88431434   4.26953185   1.11858143 
H    1.81715897   3.66028786   2.45707930 
H    0.07530365   3.47223728   2.46338313 
H    3.22500465  -1.94566494   0.86041981 
H    1.35676669  -3.37212755  -0.56734894 
*
