! EnGrad PBEh-3c
%output 
xyzfile=True 
end 
%scf 
maxiter 250 
end
%output
Print[P_Hirshfeld] = 1
end
% maxcore
4000
*xyz 1 1
Ir   0.68480980  -0.78597988   0.52503567 
C   -0.04405951  -2.89942547   1.37148628 
C    0.41817620  -2.08536915   2.46871966 
C    2.21587111  -2.31221983   0.93085498 
C    0.99332370  -2.91008045   0.30898943 
C    1.84331103  -1.74733395   2.20826027 
N   -1.05323525  -0.11584975  -0.52588871 
C   -2.44120367  -0.06512414   0.02651859 
C   -2.85237235   1.34302260   0.59371222 
H   -3.91287745   1.31206844   0.88296161 
H   -2.77978338   2.15508735  -0.15428081 
H   -2.27076582   1.62216811   1.49177695 
C   -3.47086626  -0.51823026  -1.05146469 
H   -2.44509889  -0.80078207   0.86854653 
H   -4.42610607  -0.63940048  -0.54435642 
H   -3.66601018   0.21690715  -1.86067923 
H   -3.19567316  -1.48489383  -1.51030243 
C   -0.84539504   0.24396022  -1.72988284 
C    0.47626675   0.18969904  -2.23194650 
H   -1.67069446   0.55973228  -2.38187090 
C    1.59867680  -0.03759771  -1.45476471 
C    2.72600625  -0.09395208  -2.36794180 
S    0.72153991   0.23952671  -3.91819766 
C    2.37972734  -0.01978260  -3.70570939 
H    1.81085608   1.25834493  -0.18284829 
H    3.79275438  -0.18563273  -2.17491773 
H    2.98972909  -0.05997284  -4.62053064 
H   -1.05697733  -3.40686606   1.29631610 
H   -0.15801235  -1.91124859   3.42931865 
H    2.54368181  -1.23917645   2.95270515 
O    1.97055756   2.07384478   0.29349151 
O    0.42233885   1.08676991   1.45479205 
C    1.08680818   2.07164759   1.22613042 
C    0.89322624   3.36353981   1.94938583 
H    0.86579090   4.18763762   1.24486253 
H    1.71630175   3.57547915   2.61976988 
H   -0.00473208   3.41942567   2.53343502 
H    3.21829213  -2.18248473   0.43743351 
H    0.91842556  -3.42202210  -0.69418287 
*
