! EnGrad PBEh-3c
%output 
xyzfile=True 
end 
%scf 
maxiter 250 
end
%output
Print[P_Hirshfeld] = 1
end
% maxcore
4000
*xyz 1 1
Ir   0.65268314  -0.77398426   0.49570282 
C    0.01029919  -2.91755218   1.22839168 
C    0.26516832  -2.14151266   2.38266785 
C    2.20399619  -2.17916506   1.08783762 
C    1.14525970  -2.85617478   0.34740237 
C    1.65250118  -1.72600558   2.30900132 
N   -1.08597998  -0.12805271  -0.53625478 
C   -2.47391379  -0.10946847   0.02985612 
C   -2.82014598   1.21746342   0.73038763 
H   -3.86109101   1.16921052   1.06386938 
H   -2.74722876   2.07681952   0.05278052 
H   -2.19597300   1.38984132   1.60810896 
C   -3.52433890  -0.43025783  -1.03893208 
H   -2.48415814  -0.91487314   0.78179125 
H   -4.47400960  -0.56880747  -0.52717172 
H   -3.69358479   0.37479055  -1.76635633 
H   -3.29570565  -1.35394754  -1.57753737 
C   -0.86672747   0.23843823  -1.74498459 
C    0.46336338   0.17889491  -2.25422068 
H   -1.69648560   0.54792065  -2.37475937 
C    1.55177097  -0.10788041  -1.44342475 
C    2.70269462  -0.15011036  -2.35303529 
S    0.74959054   0.30091075  -3.95415426 
C    2.40162905  -0.00187708  -3.69880581 
H    1.95412153   1.30959869  -0.38684454 
H    3.75196737  -0.30051346  -2.12102486 
H    3.06116118  -0.01880543  -4.57845306 
H   -0.89134266  -3.50346078   1.03221336 
H   -0.38573081  -2.06167553   3.26222979 
H    2.20231658  -1.22376333   3.11403261 
O    2.03765999   2.09071592   0.18738236 
O    0.41963625   1.12495593   1.39997191 
C    1.13593899   2.08915299   1.11599907 
C    0.94478972   3.40740906   1.84854753 
H    0.87933959   4.24753791   1.15249615 
H    1.79007222   3.63751119   2.50077234 
H    0.05380883   3.45805392   2.48219663 
H    3.22320190  -2.00926651   0.74682038 
H    1.23904349  -3.38552750  -0.60141213 
*
