! EnGrad PBEh-3c
%output 
xyzfile=True 
end 
%scf 
maxiter 250 
end
%output
Print[P_Hirshfeld] = 1
end
% maxcore
4000
*xyz 1 1
Ir   0.61041237  -0.77238341   0.47695776 
C    0.09762710  -2.92577174   1.02011941 
C    0.06918480  -2.23878206   2.24153267 
C    2.16396929  -1.98041010   1.31614136 
C    1.35041819  -2.78600846   0.41833259 
C    1.38826157  -1.69834050   2.41974794 
N   -1.13282599  -0.14775209  -0.54157214 
C   -2.52299712  -0.17491650   0.04083636 
C   -2.76313086   1.03166038   0.91502033 
H   -3.78059833   0.96231710   1.31973169 
H   -2.69708887   1.95239946   0.35148799 
H   -2.09041266   1.06545405   1.76048655 
C   -3.58893422  -0.30416262  -1.02129917 
H   -2.53962002  -1.05475391   0.64024205 
H   -4.54760918  -0.47163891  -0.50026442 
H   -3.72537862   0.58794618  -1.62002456 
H   -3.44011066  -1.16024700  -1.66552218 
C   -0.90765273   0.22414661  -1.75373621 
C    0.43740999   0.17363127  -2.30191304 
H   -1.72791969   0.53340754  -2.36485802 
C    1.48125486  -0.19757025  -1.42720943 
C    2.67873862  -0.23725111  -2.34791596 
S    0.79282476   0.38398333  -3.99519431 
C    2.43334893   0.03074868  -3.68380092 
H    2.15049907   1.38746197  -0.64753127 
H    3.69003690  -0.46678482  -2.02677295 
H    3.15880972   0.04022980  -4.49241239 
H   -0.64520953  -3.60841635   0.66293532 
H   -0.68456475  -2.27167645   2.99898230 
H    1.70626891  -1.20448501   3.30967915 
O    2.12917582   2.06432056  -0.01473797 
O    0.42055942   1.19320494   1.32341098 
C    1.20547929   2.12351048   0.96227506 
C    0.99847639   3.50851465   1.73853892 
H    0.90218233   4.31717364   1.01899112 
H    1.89630799   3.71561023   2.32504187 
H    0.14056777   3.49871835   2.40449817 
H    3.20266435  -1.77084656   1.18262160 
H    1.68813143  -3.32556762  -0.44183204 
*
