! EnGrad PBEh-3c
%output 
xyzfile=True 
end 
%scf 
maxiter 250 
end
%output
Print[P_Hirshfeld] = 1
end
% maxcore
4000
*xyz 1 1
Ir   0.56539161  -0.78011261   0.51067023 
C    0.11828964  -2.92316313   0.96004272 
C    0.03879361  -2.26308009   2.21080246 
C    2.15367206  -1.94144992   1.35124028 
C    1.40848093  -2.76837447   0.43856302 
C    1.31749890  -1.68420835   2.44152437 
N   -1.13031465  -0.15654308  -0.53584535 
C   -2.51031458  -0.18451111   0.02651817 
C   -2.75219560   0.98328638   0.95934932 
H   -3.75999586   0.91357754   1.38261955 
H   -2.68314495   1.92041857   0.42028414 
H   -2.06254073   0.99307248   1.79372275 
C   -3.61226161  -0.27723726  -1.01146711 
H   -2.55530764  -1.08536871   0.60702346 
H   -4.56813976  -0.44940143  -0.49511474 
H   -3.72861481   0.63732498  -1.58183294 
H   -3.47378511  -1.11529674  -1.68504568 
C   -0.91792837   0.21372737  -1.74944482 
C    0.40867879   0.17330296  -2.31138865 
H   -1.73357957   0.53419561  -2.36871241 
C    1.47431223  -0.20248975  -1.49842321 
C    2.67262245  -0.27382781  -2.34364179 
S    0.80703842   0.39621068  -3.97219551 
C    2.44199231   0.04313709  -3.66303004 
H    2.20385924   1.33213745  -0.77056046 
H    3.67091337  -0.50522539  -1.99941854 
H    3.17819487   0.05272922  -4.45479327 
H   -0.59805650  -3.62892889   0.57252035 
H   -0.74612644  -2.31956493   2.92984405 
H    1.58967030  -1.19338988   3.35225370 
O    2.12286886   2.12984875   0.02762833 
O    0.45367673   1.21155455   1.27811361 
C    1.19363503   2.17858978   0.95232838 
C    1.01997681   3.51614641   1.70258942 
H    0.90963798   4.32551686   0.98586395 
H    1.92099736   3.73064911   2.27985941 
H    0.17222868   3.49609489   2.37255723 
H    3.19730634  -1.71610484   1.28336506 
H    1.79188078  -3.31488598  -0.39791080 
*
