! EnGrad PBEh-3c
%output 
xyzfile=True 
end 
%scf 
maxiter 250 
end
%output
Print[P_Hirshfeld] = 1
end
% maxcore
4000
*xyz 1 1
Ir   0.58207645  -0.77680581   0.49907012 
C    0.10612944  -2.92452015   0.99065344 
C    0.05885088  -2.24882166   2.22913609 
C    2.16036522  -1.96543882   1.32596842 
C    1.38027367  -2.77652106   0.42832939 
C    1.35200019  -1.69075141   2.43095755 
N   -1.12873489  -0.15252456  -0.53786974 
C   -2.51149054  -0.17648457   0.02929135 
C   -2.76015121   1.00867770   0.93624485 
H   -3.77064501   0.94041754   1.34874651 
H   -2.69040844   1.93790361   0.38197264 
H   -2.07706403   1.03305085   1.77544375 
C   -3.60291953  -0.29279784  -1.01454029 
H   -2.54754524  -1.07001851   0.62651086 
H   -4.55667355  -0.46138876  -0.49870778 
H   -3.72608715   0.61087150  -1.60240957 
H   -3.45513279  -1.14036428  -1.67446281 
C   -0.91053693   0.21813433  -1.75095845 
C    0.42041688   0.17261181  -2.30289980 
H   -1.73085807   0.53466184  -2.36804438 
C    1.48011933  -0.19651162  -1.47800101 
C    2.67462503  -0.25691673  -2.34352723 
S    0.80001547   0.38815512  -3.97878680 
C    2.43731752   0.03697678  -3.67073412 
H    2.17706297   1.35654868  -0.70959875 
H    3.68075912  -0.48379676  -2.01446170 
H    3.16755091   0.04556739  -4.47351861 
H   -0.62574112  -3.61820929   0.62120609 
H   -0.71134909  -2.29352491   2.96703878 
H    1.65356086  -1.19844970   3.32927797 
O    2.11848120   2.10144186   0.01956363 
O    0.44361483   1.20432441   1.29725992 
C    1.19456299   2.15518472   0.96119073 
C    1.01244280   3.50564738   1.71744000 
H    0.90564627   4.32056868   1.00354649 
H    1.90736987   3.72252683   2.30437152 
H    0.15575668   3.49599039   2.38861132 
H    3.20053820  -1.74605462   1.22835037 
H    1.73480848  -3.32157557  -0.42094046 
*
