! EnGrad PBEh-3c
%output 
xyzfile=True 
end 
%scf 
maxiter 250 
end
%output
Print[P_Hirshfeld] = 1
end
% maxcore
4000
*xyz 1 1
Ir   0.66719949  -0.76345968   0.46936439 
C   -0.00232940  -2.92809559   1.24867355 
C    0.26846253  -2.12490802   2.39502659 
C    2.21912496  -2.19348593   1.07751124 
C    1.13532038  -2.85562568   0.33575235 
C    1.66220354  -1.73236709   2.31862632 
N   -1.08796528  -0.12341144  -0.54590406 
C   -2.47880554  -0.10617021   0.03226097 
C   -2.82899124   1.23393859   0.72404864 
H   -3.86970672   1.18379858   1.04770204 
H   -2.75293678   2.09232763   0.03276361 
H   -2.20322825   1.40505571   1.60632169 
C   -3.52379952  -0.43777054  -1.04139551 
H   -2.47994745  -0.91886167   0.79980674 
H   -4.46492549  -0.57283233  -0.52993709 
H   -3.69690966   0.36805968  -1.78300628 
H   -3.28579220  -1.36929106  -1.57653506 
C   -0.85737372   0.24434997  -1.75070640 
C    0.47697153   0.17371109  -2.24301157 
H   -1.69857425   0.54620069  -2.37324320 
C    1.55458089  -0.11589121  -1.41598222 
C    2.69651159  -0.13386730  -2.34666329 
S    0.74357409   0.30098239  -3.97020515 
C    2.39918451  -0.00977810  -3.70731976 
H    1.94338873   1.32504457  -0.36742308 
H    3.76074214  -0.28941867  -2.13730494 
H    3.05881214  -0.02210077  -4.60414273 
H   -0.90625174  -3.51413672   1.05289681 
H   -0.38660287  -2.05159500   3.29661205 
H    2.23856344  -1.22525779   3.12190805 
O    2.03673381   2.10156292   0.20868492 
O    0.41164997   1.12425795   1.41308198 
C    1.14298211   2.04718502   1.10406676 
C    0.94988317   3.38853199   1.84089544 
H    0.87529086   4.25461496   1.16253196 
H    1.78321572   3.63947516   2.51671044 
H    0.04138070   3.46727737   2.49535227 
H    3.23802972  -2.01941301   0.72331189 
H    1.21633775  -3.39231290  -0.62805343 
*
