! EnGrad PBEh-3c
%output 
xyzfile=True 
end 
%scf 
maxiter 250 
end
%output
Print[P_Hirshfeld] = 1
end
% maxcore
4000
*xyz 0 1
Pd   0.39527819   0.13952308  -0.21336024 
O    1.97014595   1.37378929   0.63260363 
C    1.81430083   2.56534236   0.37226316 
O    0.70870737   2.98633199  -0.16352565 
C    2.87334073   3.58455143   0.64490850 
H    2.49443601   4.50551381   1.08790008 
H    3.34774332   3.86597226  -0.29793868 
H    3.64199422   3.16923869   1.29036746 
N   -1.30411491  -0.84269750  -0.92970664 
C   -1.03588852  -2.16225812  -1.53089224 
H   -0.31688404  -2.12420806  -2.34473418 
H   -1.90891827  -2.62940488  -2.02993433 
H   -0.62894080  -2.83785769  -0.79636509 
C   -1.89429059  -0.04515902  -2.01664235 
H   -2.01029467   0.98442171  -1.69520022 
H   -2.87303476  -0.43081693  -2.33080139 
H   -1.28279434  -0.04217633  -2.91231565 
C   -1.68429768  -1.17538644   1.46831048 
C   -2.04852663  -2.12626517   2.42145969 
C   -1.71493120  -1.98526632   3.76097399 
C   -0.99192625  -0.88211641   4.16908132 
C   -0.80934688   0.16206629   3.27266291 
C   -1.17745059   0.03232610   1.94002845 
H   -0.76463995  -0.75041787   5.21991022 
H   -0.53865029   1.10606919   3.72928817 
H   -2.75086093  -2.91999289   2.18673359 
H   -2.06813443  -2.70197062   4.49054125 
H   -1.26573162   3.80125808   0.98037373 
C   -2.33675019  -1.06606115   0.11632388 
H   -3.07381310  -0.25306058   0.12676754 
H   -2.97823178  -1.94615176  -0.02895901 
O    1.52081945   0.49035761  -1.90208379 
C    2.24964745  -0.42848906  -2.41337305 
O    2.18496291  -1.56113047  -1.96352901 
C    3.32836165  -0.03502992  -3.39719806 
H    3.70367211  -0.89396589  -3.95532798 
H    4.18091428   0.36380391  -2.84518590 
H    3.04412162   0.70931725  -4.14341093 
*
