! EnGrad PBEh-3c
%output 
xyzfile=True 
end 
%scf 
maxiter 250 
end
%output
Print[P_Hirshfeld] = 1
end
% maxcore
4000
*xyz 0 1
Pd   0.32841309   0.43413139  -0.01598316 
O    1.82930075   1.38288037   0.59751979 
C    1.69689674   2.52956822   0.39673860 
O    0.42879072   2.98765369  -0.14441824 
C    2.75951483   3.54110573   0.63971208 
H    2.33759413   4.45610907   1.05888196 
H    3.24474913   3.87668607  -0.29126037 
H    3.59244089   3.23082047   1.31394234 
N   -1.38835917  -0.81473289  -0.99263813 
C   -1.11743867  -2.07190419  -1.79414546 
H   -0.40485211  -1.79805971  -2.61256286 
H   -2.15512408  -2.41376956  -2.06875734 
H   -0.67560775  -2.83445252  -1.12120796 
C   -2.01338485   0.17935032  -1.91397079 
H   -2.12554766   1.15884803  -1.40224793 
H   -3.02200132  -0.17350055  -2.22124717 
H   -1.31653671   0.30570982  -2.76124535 
C   -1.80321985  -0.99967735   1.53224141 
C   -1.84904341  -2.12587745   2.36388236 
C   -1.38177160  -2.03450827   3.68054916 
C   -1.16529176  -0.71515132   4.18482107 
C   -0.99864590   0.37016923   3.31892499 
C   -0.91394950   0.04386888   1.92513573 
H   -0.80628845  -0.62965628   5.20510177 
H   -0.80387627   1.38063561   3.70748768 
H   -2.10409947  -3.16559958   1.94037308 
H   -1.47082173  -2.89869221   4.35801664 
H   -1.36800871   3.33070547   1.10149887 
C   -2.30982403  -1.13600828   0.10121950 
H   -3.05881826  -0.35761270   0.10026613 
H   -2.72718695  -2.14907842  -0.12027539 
O    1.59101434   0.33506887  -1.83903267 
C    2.23184145  -0.65346599  -2.42066343 
O    1.88375981  -1.84026442  -2.55064264 
C    3.52481105  -0.24682319  -3.16436006 
H    3.90490898  -1.17223783  -3.61969018 
H    4.31648971   0.17790807  -2.54198053 
H    3.31775057   0.49326508  -3.94895428 
*
