! EnGrad PBEh-3c
%output 
xyzfile=True 
end 
%scf 
maxiter 250 
end
%output
Print[P_Hirshfeld] = 1
end
% maxcore
4000
*xyz 0 1
Pd   0.37091928   0.38475693  -0.04910954 
O    1.86276976   1.34109297   0.59974730 
C    1.69600065   2.55927190   0.38010100 
O    0.51824810   2.98365812  -0.14569416 
C    2.80299997   3.55428304   0.64335018 
H    2.38395116   4.47069999   1.06734245 
H    3.27841495   3.87577336  -0.29474489 
H    3.61480564   3.21354979   1.31079918 
N   -1.37972819  -0.84433421  -0.99890816 
C   -1.08495973  -2.11650138  -1.72663859 
H   -0.37007292  -1.89061144  -2.52942621 
H   -2.08536714  -2.47212677  -2.04417491 
H   -0.66245885  -2.83933204  -1.01237108 
C   -1.98255203   0.11871782  -1.95304088 
H   -2.09080952   1.11077019  -1.49187690 
H   -2.97565373  -0.25561471  -2.24905219 
H   -1.29756291   0.19631040  -2.80696471 
C   -1.80169869  -1.02627752   1.52442147 
C   -1.91182482  -2.13276275   2.38384502 
C   -1.47470072  -2.02828667   3.69926792 
C   -1.12579716  -0.76349670   4.18291520 
C   -0.94701558   0.31898017   3.30798807 
C   -0.95885663   0.02636259   1.93036351 
H   -0.78725237  -0.66772282   5.20726326 
H   -0.71584767   1.29757488   3.70915003 
H   -2.30523178  -3.09530393   2.01330241 
H   -1.65994312  -2.83895829   4.39986071 
H   -1.32861364   3.47469329   1.06088040 
C   -2.32035772  -1.11988453   0.11451962 
H   -3.05210910  -0.32217672   0.11345695 
H   -2.79992236  -2.08991022  -0.10256506 
O    1.55170712   0.40315661  -1.87595374 
C    2.24262824  -0.58862448  -2.38703906 
O    1.98848128  -1.77836470  -2.38184740 
C    3.46545121  -0.18052020  -3.24495527 
H    3.84730340  -1.08879815  -3.72451925 
H    4.27215024   0.23560648  -2.63630267 
H    3.22853838   0.56416869  -4.00818123 
*
