! EnGrad PBEh-3c
%output 
xyzfile=True 
end 
%scf 
maxiter 250 
end
%output
Print[P_Hirshfeld] = 1
end
% maxcore
4000
*xyz 0 1
Pd   0.30664239   0.37346514  -0.05643550 
O    1.85176510   1.37312705   0.61933267 
C    1.66219642   2.57596591   0.37794861 
O    0.47768012   2.97250323  -0.12656018 
C    2.76824284   3.55340735   0.64166459 
H    2.33762776   4.45533463   1.05876371 
H    3.24111216   3.87210026  -0.29144451 
H    3.58081116   3.22671826   1.30646432 
N   -1.36850762  -0.79690513  -0.98174708 
C   -1.12387178  -2.05268848  -1.77796289 
H   -0.42207103  -1.81149177  -2.60586073 
H   -2.13453459  -2.41668946  -2.08409067 
H   -0.67403284  -2.82441472  -1.13608166 
C   -2.00716746   0.17476647  -1.90771184 
H   -2.12477397   1.14960323  -1.40440130 
H   -3.01244093  -0.17116522  -2.22438894 
H   -1.33280146   0.30714154  -2.75885452 
C   -1.75743203  -1.03608190   1.51509360 
C   -1.84145335  -2.13853645   2.36233982 
C   -1.40199036  -2.01397681   3.68550322 
C   -1.14111052  -0.73328864   4.17985689 
C   -0.98613534   0.35494103   3.31107945 
C   -0.97906934   0.07288492   1.92719949 
H   -0.81797132  -0.62784140   5.20970635 
H   -0.81723247   1.36743261   3.71241177 
H   -2.09634493  -3.13615340   1.95059058 
H   -1.46091080  -2.88715788   4.35306687 
H   -1.37300593   3.32670908   1.10366759 
C   -2.30640010  -1.13212555   0.10326313 
H   -3.07628761  -0.36733514   0.09466946 
H   -2.72789632  -2.13561705  -0.10461787 
O    1.61540470   0.31990012  -1.82053591 
C    2.22301105  -0.63521298  -2.44114681 
O    1.86639077  -1.81471467  -2.53824281 
C    3.52292945  -0.25269850  -3.15934600 
H    3.89648306  -1.17071118  -3.61837602 
H    4.31254109   0.17450327  -2.53826410 
H    3.32869745   0.48730023  -3.95224380 
*
