! EnGrad PBEh-3c
%output 
xyzfile=True 
end 
%scf 
maxiter 250 
end
%output
Print[P_Hirshfeld] = 1
end
% maxcore
4000
*xyz 0 1
Pd   0.28594539   0.31835910  -0.09303542 
O    1.86116117   1.38194977   0.63581910 
C    1.65912648   2.59300416   0.37533354 
O    0.50021888   2.96704801  -0.11843539 
C    2.76608188   3.56315438   0.64041132 
H    2.33529048   4.45646743   1.05940201 
H    3.23575553   3.86780113  -0.29200352 
H    3.56750256   3.22199097   1.30013954 
N   -1.34963644  -0.77587061  -0.96664853 
C   -1.13046929  -2.02934134  -1.76573635 
H   -0.44161418  -1.81957665  -2.60422917 
H   -2.11912076  -2.41612295  -2.10144211 
H   -0.67337870  -2.81361044  -1.15705009 
C   -2.00265140   0.17426382  -1.89727049 
H   -2.12625960   1.14312564  -1.40130363 
H   -3.00605773  -0.16360009  -2.22646238 
H   -1.34945269   0.31605248  -2.75465464 
C   -1.71094975  -1.07048544   1.49641739 
C   -1.82622168  -2.14445745   2.35937905 
C   -1.41817500  -2.00125726   3.69041901 
C   -1.11751220  -0.74278805   4.17473532 
C   -0.97707831   0.34486135   3.30400052 
C   -1.03956779   0.09976811   1.92564039 
H   -0.83144529  -0.62349224   5.21402748 
H   -0.83265473   1.35877889   3.71604053 
H   -2.07931350  -3.11568095   1.95556304 
H   -1.43934279  -2.87797783   4.34453572 
H   -1.37915868   3.31054137   1.10840447 
C   -2.30181031  -1.12770109   0.10382748 
H   -3.09460270  -0.37916351   0.08806401 
H   -2.72551088  -2.12605605  -0.08992224 
O    1.63793706   0.30049412  -1.79709746 
C    2.21376528  -0.63644226  -2.46288061 
O    1.84505598  -1.78065469  -2.53677826 
C    3.52309741  -0.26058579  -3.15161735 
H    3.89351773  -1.17408395  -3.61068095 
H    4.31111482   0.16748131  -2.52780358 
H    3.34429108   0.47571793  -3.94993114 
*
