! EnGrad PBEh-3c
%output 
xyzfile=True 
end 
%scf 
maxiter 250 
end
%output
Print[P_Hirshfeld] = 1
end
% maxcore
4000
*xyz 0 1
Pd   0.26983721   0.30113534  -0.10682428 
O    1.84976192   1.39183432   0.64476475 
C    1.62984154   2.59865291   0.37147485 
O    0.50767996   2.95936151  -0.10351224 
C    2.75288108   3.56835466   0.63790672 
H    2.31696462   4.45628678   1.05845029 
H    3.22105117   3.86543603  -0.29363504 
H    3.54974061   3.22237975   1.29691586 
N   -1.34499675  -0.75888510  -0.96509225 
C   -1.14040392  -1.99956397  -1.78467050 
H   -0.47117486  -1.79459025  -2.62720081 
H   -2.12776820  -2.39130542  -2.12110392 
H   -0.67684763  -2.80210154  -1.20766235 
C   -2.01139660   0.20021192  -1.87647939 
H   -2.13928148   1.15426681  -1.36929799 
H   -3.01260266  -0.13218990  -2.21604161 
H   -1.36803320   0.35928563  -2.73694112 
C   -1.68265552  -1.07569258   1.48199917 
C   -1.78571598  -2.14828088   2.35437812 
C   -1.40079305  -2.00039374   3.68438548 
C   -1.11026009  -0.73279614   4.17351433 
C   -0.98928695   0.36250889   3.30142190 
C   -1.07307440   0.12295891   1.92122738 
H   -0.84885574  -0.60778882   5.21685503 
H   -0.87366271   1.37318162   3.71636237 
H   -2.00065948  -3.12439824   1.93545791 
H   -1.36013750  -2.88630570   4.32336985 
H   -1.39486332   3.24421346   1.12540909 
C   -2.29302577  -1.13055249   0.10870313 
H   -3.11009639  -0.40246795   0.08050593 
H   -2.69796106  -2.13640194  -0.08576707 
O    1.66223647   0.27484384  -1.76598119 
C    2.21037576  -0.64807305  -2.47509478 
O    1.78964369  -1.79324599  -2.59729391 
C    3.54172807  -0.28730813  -3.12826692 
H    3.91156600  -1.20604502  -3.57021855 
H    4.32082916   0.14113648  -2.48590657 
H    3.38796528   0.44169122  -3.92769475 
*
