! EnGrad PBEh-3c
%output 
xyzfile=True 
end 
%scf 
maxiter 250 
end
%output
Print[P_Hirshfeld] = 1
end
% maxcore
4000
*xyz 0 1
Pd   0.25378373   0.27447683  -0.13283218 
O    1.81560189   1.38948415   0.66430091 
C    1.56206148   2.61922430   0.36330168 
O    0.52398563   2.94636588  -0.07157902 
C    2.72014888   3.57694468   0.63213798 
H    2.27557085   4.46253002   1.05867414 
H    3.18942778   3.86126625  -0.30173632 
H    3.50884269   3.22046579   1.29022186 
N   -1.34698285  -0.73222103  -0.97476598 
C   -1.16061646  -1.94049580  -1.82921982 
H   -0.53598518  -1.73688726  -2.67859519 
H   -2.14278953  -2.32931349  -2.16271416 
H   -0.68342078  -2.77287361  -1.31669455 
C   -2.03086832   0.26084664  -1.83340023 
H   -2.16896572   1.18286467  -1.29634591 
H   -3.02246172  -0.06526866  -2.18962566 
H   -1.40880163   0.45607631  -2.69866153 
C   -1.62762739  -1.07131440   1.45627698 
C   -1.68725147  -2.15778092   2.33674302 
C   -1.35552120  -1.99676017   3.67308758 
C   -1.09355900  -0.71008602   4.16326148 
C   -1.02177701   0.39871639   3.29460268 
C   -1.14937050   0.17101027   1.91196389 
H   -0.88809239  -0.57288876   5.22474295 
H   -0.96045194   1.40156199   3.71535330 
H   -1.82819176  -3.14300982   1.89334549 
H   -1.18753238  -2.89937311   4.27655235 
H   -1.42620210   3.08311005   1.16355487 
C   -2.27316390  -1.13814712   0.12013633 
H   -3.14205366  -0.45840197   0.06721383 
H   -2.63561010  -2.15597347  -0.07676366 
O    1.71225895   0.22447320  -1.69814993 
C    2.19010416  -0.70757926  -2.48524603 
O    1.68059065  -1.78752480  -2.73346399 
C    3.58275896  -0.34714950  -3.07758309 
H    3.95408459  -1.27953407  -3.48212090 
H    4.33352148   0.07884474  -2.39236561 
H    3.48523698   0.36784175  -3.88200816 
*
