! EnGrad PBEh-3c
%output 
xyzfile=True 
end 
%scf 
maxiter 250 
end
%output
Print[P_Hirshfeld] = 1
end
% maxcore
4000
*xyz 0 1
Pd   0.28935096   0.25309642  -0.16056557 
O    1.72438156   1.35688511   0.69499448 
C    1.53580998   2.58901973   0.40216613 
O    0.43444618   2.98978813  -0.05437361 
C    2.65205185   3.59156331   0.62582568 
H    2.20719937   4.49317612   1.06315165 
H    3.12982395   3.85549355  -0.32568614 
H    3.42490084   3.20666357   1.27808836 
N   -1.38712007  -0.71332551  -1.02516267 
C   -1.20098927  -1.85796890  -1.90938234 
H   -0.64072154  -1.62172919  -2.78099282 
H   -2.16293391  -2.20191928  -2.23262156 
H   -0.68594048  -2.70932730  -1.48346171 
C   -2.06128069   0.36854945  -1.77014333 
H   -2.22252051   1.25019934  -1.15753087 
H   -3.02768831   0.03978642  -2.13693798 
H   -1.47378866   0.63136897  -2.63889295 
C   -1.55528482  -1.02752396   1.42948492 
C   -1.48287739  -2.16654083   2.28782053 
C   -1.23777156  -1.99016679   3.64227658 
C   -1.06413924  -0.67032805   4.13532979 
C   -1.08499923   0.44440431   3.26894195 
C   -1.28306543   0.26015710   1.90847721 
H   -0.96339204  -0.50740604   5.21934532 
H   -1.08491711   1.43608968   3.69982064 
H   -1.54253160  -3.16779175   1.83606077 
H   -0.91185635  -2.89135265   4.19663054 
H   -1.44251653   2.72683318   1.22109289 
C   -2.24431658  -1.15091579   0.11858069 
H   -3.18449160  -0.57133620   0.06414959 
H   -2.53159377  -2.18025392  -0.05610265 
O    1.78373544   0.10335227  -1.59206498 
C    2.15738228  -0.77143482  -2.46120469 
O    1.50832334  -1.76428900  -2.96227248 
C    3.62935452  -0.46968985  -2.97420331 
H    4.04607903  -1.40488992  -3.33747604 
H    4.32601185  -0.04146060  -2.22351262 
H    3.64461086   0.24492250  -3.81275203 
*
