! EnGrad PBEh-3c
%output 
xyzfile=True 
end 
%scf 
maxiter 250 
end
%output
Print[P_Hirshfeld] = 1
end
% maxcore
4000
*xyz 0 1
Pd   0.32304513   0.26306566  -0.15541918 
O    1.70851935   1.33951239   0.69359091 
C    1.51728299   2.57807291   0.40739564 
O    0.43055541   3.00589933  -0.04981759 
C    2.64436186   3.59042615   0.62699017 
H    2.21129942   4.50290185   1.06368819 
H    3.12423323   3.85551212  -0.32937945 
H    3.42009903   3.20014093   1.27973845 
N   -1.39922285  -0.72190016  -1.03645988 
C   -1.19749389  -1.86973943  -1.91626703 
H   -0.63497373  -1.61168103  -2.78829571 
H   -2.16886358  -2.19561143  -2.23499777 
H   -0.68022874  -2.69949867  -1.46702057 
C   -2.05855085   0.37168632  -1.77540203 
H   -2.22133671   1.25561752  -1.15272554 
H   -3.02414613   0.03136672  -2.13435299 
H   -1.46948445   0.63603357  -2.64330703 
C   -1.57585792  -1.00704343   1.43674908 
C   -1.45872883  -2.15222568   2.27572404 
C   -1.20668284  -1.99049400   3.63230672 
C   -1.06344047  -0.67335428   4.12805493 
C   -1.09027895   0.43452980   3.27267271 
C   -1.28944333   0.26557139   1.91093002 
H   -0.96627295  -0.50591282   5.20423180 
H   -1.06883478   1.42339631   3.69238241 
H   -1.55359668  -3.15752281   1.84803741 
H   -0.93294922  -2.86442193   4.19840715 
H   -1.41395436   2.66492215   1.21455803 
C   -2.24544482  -1.14951321   0.10540353 
H   -3.17556801  -0.58148642   0.07921656 
H   -2.53509361  -2.17737818  -0.05267664 
O    1.76899721   0.08861089  -1.59427338 
C    2.14606753  -0.79479056  -2.46088802 
O    1.54860711  -1.70447810  -2.93293790 
C    3.61275420  -0.47503943  -2.97190354 
H    4.05362447  -1.40441263  -3.34240721 
H    4.30147084  -0.05174999  -2.22183450 
H    3.63769583   0.24133247  -3.81235103 
*
