! EnGrad PBEh-3c
%output 
xyzfile=True 
end 
%scf 
maxiter 250 
end
%output
Print[P_Hirshfeld] = 1
end
% maxcore
4000
*xyz 0 1
Pd   0.40762741   0.19909445  -0.16896857 
O    1.96773657   1.29065961   0.63348392 
C    1.69648721   2.65079240   0.33310591 
O    0.74035219   2.96176219  -0.13417943 
C    2.89252306   3.58013432   0.65033585 
H    2.47816662   4.50129577   1.08537580 
H    3.34096792   3.86862359  -0.29809261 
H    3.64285538   3.17838533   1.29298273 
N   -1.33245668  -0.87313736  -0.98447554 
C   -1.02893364  -2.17714929  -1.57190705 
H   -0.32161879  -2.09308776  -2.35464575 
H   -1.92658169  -2.60009403  -2.01533792 
H   -0.63335800  -2.84124984  -0.80905983 
C   -1.91146411  -0.01068790  -2.01633728 
H   -2.01890181   0.99819751  -1.67644812 
H   -2.87769227  -0.41692541  -2.31387872 
H   -1.27623453  -0.02204275  -2.89962951 
C   -1.73093602  -1.12310788   1.47971293 
C   -2.03850385  -2.14406194   2.42377403 
C   -1.68272045  -1.99700528   3.74630785 
C   -1.01935000  -0.87248775   4.17321080 
C   -0.82789687   0.19864708   3.27652643 
C   -1.12335559   0.01521936   1.93899239 
H   -0.76074715  -0.74265549   5.21858283 
H   -0.55291597   1.11968175   3.72029416 
H   -2.70509985  -2.93683814   2.16852471 
H   -2.03217859  -2.71494620   4.48223024 
H   -1.26036133   3.76676604   0.98365514 
C   -2.33770076  -1.08063248   0.14441502 
H   -3.06123091  -0.25720975   0.13059520 
H   -2.95339764  -1.96045040  -0.04830487 
O    1.50066179   0.51927906  -1.92033334 
C    2.25388205  -0.47468046  -2.35706239 
O    2.17900167  -1.59700502  -2.02796251 
C    3.34663833  -0.04608200  -3.40759621 
H    3.72048704  -0.91318140  -3.93142861 
H    4.18652747   0.35106881  -2.82295297 
H    3.06037778   0.69611001  -4.12655497 
*
