! EnGrad PBEh-3c
%output 
xyzfile=True 
end 
%scf 
maxiter 250 
end
%output
Print[P_Hirshfeld] = 1
end
% maxcore
4000
*xyz 0 1
Pd   0.31892773   0.25639865  -0.15835584 
O    1.71202176   1.34599113   0.69526136 
C    1.50793818   2.58450081   0.40667184 
O    0.43396440   3.00704155  -0.04401849 
C    2.64147098   3.58727297   0.62812708 
H    2.21606957   4.50135431   1.06146027 
H    3.12006307   3.85407380  -0.32646323 
H    3.42044129   3.19966503   1.28049872 
N   -1.39068052  -0.71564096  -1.02847263 
C   -1.19786527  -1.87010246  -1.91793945 
H   -0.62881606  -1.61027988  -2.78957726 
H   -2.17646192  -2.20258792  -2.23726351 
H   -0.67744506  -2.69939140  -1.45557785 
C   -2.05669330   0.36760093  -1.77714099 
H   -2.21801792   1.25283139  -1.15586315 
H   -3.02727015   0.02708612  -2.13738940 
H   -1.46552407   0.63426969  -2.64581219 
C   -1.58459622  -1.01144312   1.43417005 
C   -1.45914530  -2.14350352   2.27366690 
C   -1.19607941  -1.97977144   3.62313678 
C   -1.06473971  -0.67947399   4.12620745 
C   -1.08856353   0.42768939   3.27595651 
C   -1.28691863   0.27183804   1.91254415 
H   -0.96436359  -0.50667350   5.19669875 
H   -1.05896720   1.42148968   3.69126735 
H   -1.56467567  -3.15051154   1.85344635 
H   -0.94812111  -2.85994521   4.20539689 
H   -1.39678436   2.64219419   1.20839990 
C   -2.24476612  -1.14874214   0.09941356 
H   -3.17356689  -0.57906625   0.08506201 
H   -2.54070906  -2.17991314  -0.05165255 
O    1.76340513   0.08260285  -1.59301609 
C    2.16524822  -0.77328241  -2.46092481 
O    1.55004463  -1.70891596  -2.92599381 
C    3.60726084  -0.47432914  -2.97137758 
H    4.05201367  -1.39902866  -3.34679117 
H    4.29256778  -0.05230220  -2.22622621 
H    3.62790429   0.24093436  -3.81013422 
*
