! EnGrad PBEh-3c
%output 
xyzfile=True 
end 
%scf 
maxiter 250 
end
%output
Print[P_Hirshfeld] = 1
end
% maxcore
4000
*xyz 0 1
Pd   0.31138621   0.21927361  -0.16173486 
O    1.69449858   1.38236664   0.70249554 
C    1.45778746   2.61524797   0.43117203 
O    0.39983327   3.05282561   0.01442906 
C    2.61751623   3.57087822   0.64220135 
H    2.24873406   4.50617749   1.04997261 
H    3.07084667   3.83380239  -0.31368346 
H    3.40304475   3.18346469   1.28325814 
N   -1.35935696  -0.70920562  -1.02926731 
C   -1.19395357  -1.87847801  -1.93015517 
H   -0.59005328  -1.59615741  -2.79025262 
H   -2.20003021  -2.23137844  -2.24885476 
H   -0.66682762  -2.66608755  -1.37864421 
C   -2.04558717   0.35292171  -1.79684483 
H   -2.19523834   1.23459688  -1.17618446 
H   -3.02639479  -0.00343423  -2.14971991 
H   -1.43870688   0.63039490  -2.65691242 
C   -1.62875451  -0.97498808   1.41275210 
C   -1.44119145  -2.08399704   2.23817033 
C   -1.10943675  -1.94817426   3.57016083 
C   -1.04834907  -0.68263389   4.09929713 
C   -1.07170541   0.41625340   3.26106373 
C   -1.28806345   0.31880509   1.89718899 
H   -0.95303422  -0.51200131   5.15357837 
H   -0.95755796   1.39121088   3.67777776 
H   -1.65199337  -3.08596822   1.89371945 
H   -1.06730162  -2.79434221   4.24342264 
H   -1.19505633   2.29606650   1.14730592 
C   -2.25028933  -1.15213475   0.08224290 
H   -3.16317068  -0.56377780   0.12826931 
H   -2.57788373  -2.18815589  -0.05108530 
O    1.74566817   0.08466794  -1.55231274 
C    2.20734518  -0.72478919  -2.43685851 
O    1.60541101  -1.69264422  -2.87879163 
C    3.58474007  -0.46480079  -2.98257134 
H    4.03682840  -1.36784724  -3.37495521 
H    4.21564187  -0.05549672  -2.22647675 
H    3.54421260   0.24150653  -3.79418056 
*
