! EnGrad PBEh-3c
%output 
xyzfile=True 
end 
%scf 
maxiter 250 
end
%output
Print[P_Hirshfeld] = 1
end
% maxcore
4000
*xyz 0 1
Pd   0.29732406   0.22511422  -0.15185724 
O    1.69391007   1.38868356   0.69992514 
C    1.47768783   2.61790276   0.43840520 
O    0.38130267   3.05747534   0.02083694 
C    2.62558193   3.57542427   0.64325818 
H    2.25109024   4.50597363   1.05261204 
H    3.07359631   3.83034211  -0.31568227 
H    3.40760071   3.18233554   1.28343988 
N   -1.36987352  -0.72010005  -1.03330452 
C   -1.18825647  -1.88267889  -1.91757918 
H   -0.58494611  -1.61312016  -2.77282026 
H   -2.18027146  -2.23869241  -2.23899828 
H   -0.67327849  -2.66825976  -1.37644662 
C   -2.04312620   0.34350089  -1.80249765 
H   -2.19255922   1.22808413  -1.18960420 
H   -3.01944552  -0.00775910  -2.15358465 
H   -1.43537668   0.61453672  -2.65884899 
C   -1.61178936  -0.97374297   1.41293308 
C   -1.46795540  -2.09344819   2.24996981 
C   -1.14302841  -1.95586906   3.58372749 
C   -1.04131959  -0.67345429   4.09768917 
C   -1.05623559   0.42821172   3.24687870 
C   -1.27412295   0.31662402   1.88046663 
H   -0.94461909  -0.51720352   5.16721330 
H   -0.94083646   1.39486043   3.68000592 
H   -1.67648013  -3.08844729   1.88819378 
H   -1.08124892  -2.80303299   4.24402533 
H   -1.17460343   2.28670027   1.13681915 
C   -2.25724259  -1.14999036   0.09101133 
H   -3.16528313  -0.54770792   0.11711106 
H   -2.58393534  -2.18327766  -0.05795139 
O    1.75702421   0.11722159  -1.55385847 
C    2.18343049  -0.74071582  -2.43027423 
O    1.60874065  -1.71875986  -2.87079054 
C    3.58883411  -0.44807997  -2.98987796 
H    4.02195213  -1.36245947  -3.38522705 
H    4.23239617  -0.03417456  -2.23044424 
H    3.52788504   0.26294618  -3.80634202 
*
