! EnGrad PBEh-3c
%output 
xyzfile=True 
end 
%scf 
maxiter 250 
end
%output
Print[P_Hirshfeld] = 1
end
% maxcore
4000
*xyz 0 1
Pd   0.29549564   0.22756545  -0.14416005 
O    1.68558035   1.39338723   0.69967528 
C    1.47147234   2.62330538   0.44789399 
O    0.36460341   3.07023197   0.04150907 
C    2.62518442   3.57632798   0.64600862 
H    2.25802480   4.51112151   1.05428411 
H    3.06701432   3.82421145  -0.31773345 
H    3.40673270   3.17666376   1.28424780 
N   -1.37749808  -0.72795168  -1.03733136 
C   -1.18412994  -1.88841302  -1.91247245 
H   -0.57399879  -1.62154743  -2.76223213 
H   -2.16879334  -2.24652693  -2.23480233 
H   -0.67350189  -2.66474530  -1.35905407 
C   -2.03913432   0.33540807  -1.81002419 
H   -2.18743751   1.22232570  -1.20070861 
H   -3.01341901  -0.01722680  -2.15843344 
H   -1.42756936   0.60403046  -2.66413728 
C   -1.60940525  -0.96513511   1.41122060 
C   -1.47856535  -2.08584261   2.25060873 
C   -1.15094788  -1.94885966   3.58280907 
C   -1.03213690  -0.66834752   4.09117946 
C   -1.04093219   0.43026849   3.23502692 
C   -1.26503346   0.33077785   1.86509466 
H   -0.93736655  -0.52052722   5.16408229 
H   -0.90753506   1.39349584   3.67775740 
H   -1.71027837  -3.07930938   1.89065369 
H   -1.11247039  -2.79640447   4.25153601 
H   -1.11735233   2.19644666   1.11735750 
C   -2.26267770  -1.14754795   0.08983295 
H   -3.16409185  -0.53621295   0.11719419 
H   -2.59419474  -2.17894281  -0.06148211 
O    1.75814771   0.13148592  -1.55313767 
C    2.18009241  -0.73988010  -2.41929949 
O    1.62085183  -1.72661135  -2.84957540 
C    3.57744455  -0.43681339  -2.99243435 
H    4.01035953  -1.35348715  -3.39749498 
H    4.22851390  -0.02094632  -2.23244793 
H    3.50173105   0.27855994  -3.81280483 
*
