! EnGrad PBEh-3c
%output 
xyzfile=True 
end 
%scf 
maxiter 250 
end
%output
Print[P_Hirshfeld] = 1
end
% maxcore
4000
*xyz 0 1
Pd   0.28413976   0.23497434  -0.12354943 
O    1.66972017   1.41221774   0.69845349 
C    1.44349327   2.64705797   0.47025194 
O    0.33093389   3.09791746   0.11006923 
C    2.62749596   3.57796882   0.65399535 
H    2.28375240   4.52379252   1.05937539 
H    3.05284496   3.80596793  -0.32237941 
H    3.41055360   3.16153944   1.28652079 
N   -1.39057479  -0.74505529  -1.03858200 
C   -1.16816248  -1.91004475  -1.88949360 
H   -0.53256028  -1.65608854  -2.72411540 
H   -2.13558842  -2.28212016  -2.21971472 
H   -0.67225066  -2.66364153  -1.29591140 
C   -2.02568754   0.30361955  -1.83618490 
H   -2.16925116   1.20023436  -1.24361162 
H   -2.99796012  -0.05189570  -2.17930618 
H   -1.39962584   0.55939455  -2.68502983 
C   -1.60804492  -0.94768024   1.40434993 
C   -1.52927736  -2.06221673   2.25347563 
C   -1.18814574  -1.93045982   3.58678711 
C   -1.00816413  -0.65431712   4.07568903 
C   -0.98658560   0.43604810   3.20421762 
C   -1.22303274   0.37059756   1.82059119 
H   -0.90929856  -0.53318352   5.15204532 
H   -0.79881813   1.38885202   3.67032158 
H   -1.82963267  -3.04938196   1.90027327 
H   -1.22211714  -2.77796031   4.27690930 
H   -0.94810900   1.94479263   1.05683515 
C   -2.27940261  -1.13818260   0.08589999 
H   -3.15907972  -0.49335595   0.11440248 
H   -2.63189872  -2.16396287  -0.07267498 
O    1.75213631   0.17809287  -1.56059147 
C    2.18096544  -0.72706786  -2.39319738 
O    1.66183951  -1.75439403  -2.76332814 
C    3.54138897  -0.39297677  -3.00738081 
H    3.96558549  -1.31346638  -3.44147215 
H    4.21806243   0.02686928  -2.25541591 
H    3.41302115   0.33098076  -3.83224193 
*
