! EnGrad PBEh-3c
%output 
xyzfile=True 
end 
%scf 
maxiter 250 
end
%output
Print[P_Hirshfeld] = 1
end
% maxcore
4000
*xyz 0 1
Pd   0.28534357   0.24240077  -0.11994794 
O    1.66105805   1.41530110   0.69953175 
C    1.42030053   2.65903151   0.47717840 
O    0.32608326   3.10193026   0.14862999 
C    2.62598169   3.58031867   0.65557283 
H    2.29220029   4.53148281   1.06394412 
H    3.04977396   3.79800558  -0.32707323 
H    3.41047935   3.15546837   1.28520368 
N   -1.39463827  -0.74698942  -1.03659251 
C   -1.15891800  -1.91806479  -1.87708979 
H   -0.51712131  -1.67120814  -2.70973389 
H   -2.12082842  -2.29536741  -2.21647016 
H   -0.66976502  -2.66874190  -1.27648666 
C   -2.02173077   0.29459004  -1.84564764 
H   -2.16578760   1.19442973  -1.25759223 
H   -2.99317724  -0.06275601  -2.18977634 
H   -1.39021209   0.54267164  -2.69399735 
C   -1.60462855  -0.93900415   1.39975793 
C   -1.55114135  -2.05469562   2.25526651 
C   -1.21558937  -1.92550234   3.59364862 
C   -0.99946570  -0.64608300   4.06955706 
C   -0.95851081   0.44592675   3.19252876 
C   -1.19961969   0.38888168   1.80324271 
H   -0.89740645  -0.53288890   5.14549579 
H   -0.75555111   1.39153035   3.66396358 
H   -1.86911334  -3.03750551   1.89843944 
H   -1.25384149  -2.77164956   4.27937815 
H   -0.89113732   1.82014867   1.04096354 
C   -2.28519178  -1.13098897   0.08341750 
H   -3.15925600  -0.47906432   0.10566795 
H   -2.64288782  -2.15488447  -0.07589169 
O    1.74530194   0.18888862  -1.57027674 
C    2.18352121  -0.71805053  -2.38217480 
O    1.66603940  -1.76835051  -2.72077912 
C    3.52648451  -0.37520152  -3.01272869 
H    3.94469327  -1.29463736  -3.45241675 
H    4.21725955   0.04534300  -2.26738342 
H    3.38322591   0.34826929  -3.83468017 
*
