! EnGrad PBEh-3c
%output 
xyzfile=True 
end 
%scf 
maxiter 250 
end
%output
Print[P_Hirshfeld] = 1
end
% maxcore
4000
*xyz 0 1
Pd   0.29433683   0.25020838  -0.12355513 
O    1.64614338   1.42104478   0.70253821 
C    1.40507232   2.67041902   0.49711243 
O    0.30163473   3.11543861   0.20659992 
C    2.61707552   3.58253088   0.65653100 
H    2.30673016   4.54384497   1.07064010 
H    3.04335505   3.78471935  -0.33330111 
H    3.40628928   3.14610199   1.28059777 
N   -1.39230948  -0.74395672  -1.03230603 
C   -1.14377353  -1.92876033  -1.85892090 
H   -0.49269245  -1.69191450  -2.69048342 
H   -2.10235700  -2.31594684  -2.21627538 
H   -0.66204408  -2.67876986  -1.24668303 
C   -2.01667299   0.28422769  -1.86015641 
H   -2.16295826   1.18789088  -1.27624500 
H   -2.98826419  -0.07788273  -2.20808887 
H   -1.37696622   0.52019360  -2.70807870 
C   -1.60399029  -0.92168357   1.39088695 
C   -1.58103534  -2.03766545   2.25521105 
C   -1.25498849  -1.91150194   3.59725727 
C   -0.98922629  -0.63582048   4.05601716 
C   -0.91337717   0.46153208   3.17605917 
C   -1.15985640   0.41715720   1.78107618 
H   -0.87901193  -0.52608951   5.13060338 
H   -0.68586481   1.39745228   3.65054998 
H   -1.92309293  -3.01320293   1.89527973 
H   -1.29762969  -2.75846981   4.28073367 
H   -0.81662226   1.59087348   1.03013224 
C   -2.29099974  -1.11736961   0.07729790 
H   -3.16119297  -0.46144040   0.09092316 
H   -2.65769354  -2.14015014  -0.07791716 
O    1.72709192   0.20212047  -1.58296704 
C    2.18725222  -0.70939327  -2.36931772 
O    1.67255908  -1.77796126  -2.64445272 
C    3.50539167  -0.35030866  -3.02026822 
H    3.91185831  -1.26258931  -3.46410599 
H    4.20951496   0.06843934  -2.28959766 
H    3.34024504   0.36823831  -3.83152810 
*
