! EnGrad PBEh-3c
%output 
xyzfile=True 
end 
%scf 
maxiter 250 
end
%output
Print[P_Hirshfeld] = 1
end
% maxcore
4000
*xyz 0 1
Pd   0.31409201   0.25625733  -0.14425291 
O    1.64149455   1.41917320   0.70672611 
C    1.38879411   2.68616690   0.51826176 
O    0.28959930   3.12342038   0.26780029 
C    2.61125356   3.58543654   0.65614507 
H    2.32446109   4.55409996   1.07746152 
H    3.04148623   3.77065081  -0.33778341 
H    3.39989077   3.13956220   1.26980104 
N   -1.37704979  -0.73692883  -1.02960223 
C   -1.12568209  -1.94225111  -1.83597876 
H   -0.46494204  -1.71956184  -2.66585787 
H   -2.07869870  -2.33920162  -2.21637942 
H   -0.64892153  -2.69876763  -1.21638921 
C   -2.01197168   0.27478302  -1.87723833 
H   -2.16480878   1.18358537  -1.29858261 
H   -2.98362111  -0.09331117  -2.23249790 
H   -1.36571025   0.49271550  -2.72562484 
C   -1.60524443  -0.89938697   1.38632192 
C   -1.62342741  -2.01425951   2.25319406 
C   -1.30998326  -1.89170812   3.59746014 
C   -0.98593232  -0.62209639   4.04016825 
C   -0.86015501   0.47589373   3.16119693 
C   -1.10228925   0.42325618   1.76223461 
H   -0.85550629  -0.50984913   5.11238142 
H   -0.60712715   1.41007487   3.63293429 
H   -1.97456308  -2.98217936   1.88840047 
H   -1.33676709  -2.74539424   4.27598656 
H   -0.79423298   1.33578709   1.05759775 
C   -2.29101984  -1.09675481   0.07184791 
H   -3.16686996  -0.44445106   0.06538256 
H   -2.66946447  -2.11864405  -0.07625180 
O    1.69326414   0.23097599  -1.60043312 
C    2.18497739  -0.70286640  -2.35535685 
O    1.67811435  -1.78999592  -2.54266521 
C    3.48301194  -0.32285726  -3.02971047 
H    3.87388576  -1.22459470  -3.47523462 
H    4.20185963   0.09346343  -2.32725449 
H    3.29930729   0.39000572  -3.82685986 
*
