! EnGrad PBEh-3c
%output 
xyzfile=True 
end 
%scf 
maxiter 250 
end
%output
Print[P_Hirshfeld] = 1
end
% maxcore
4000
*xyz 0 1
Pd   0.34141939   0.25373464  -0.17821985 
O    1.65137129   1.41603062   0.70842362 
C    1.39214646   2.68068103   0.53272215 
O    0.28569238   3.12317216   0.29443517 
C    2.60810148   3.58901924   0.65383089 
H    2.33101626   4.55460890   1.07996774 
H    3.04321943   3.76346131  -0.33740410 
H    3.39129770   3.13929550   1.25882678 
N   -1.35910039  -0.72926833  -1.03502762 
C   -1.11590259  -1.95003059  -1.82521575 
H   -0.45579764  -1.73515500  -2.65404390 
H   -2.06573607  -2.34563393  -2.21828955 
H   -0.63827440  -2.71687493  -1.21385700 
C   -2.01103196   0.27682494  -1.88508356 
H   -2.17414360   1.18907863  -1.30770802 
H   -2.98190520  -0.09313748  -2.24779068 
H   -1.36713305   0.48417461  -2.73479495 
C   -1.60507759  -0.88396176   1.38804726 
C   -1.65031021  -1.99301976   2.24909954 
C   -1.34480745  -1.87574517   3.59080814 
C   -0.99312095  -0.60518652   4.03191913 
C   -0.82878459   0.48516604   3.15772855 
C   -1.06800500   0.37091089   1.78076614 
H   -0.84065051  -0.48512515   5.09819938 
H   -0.57190631   1.42810507   3.61848558 
H   -1.97813090  -2.96109346   1.87530870 
H   -1.33423500  -2.73747267   4.25867336 
H   -0.86227071   1.19803371   1.12516167 
C   -2.28114588  -1.07645988   0.07012212 
H   -3.17370925  -0.44229863   0.04015611 
H   -2.66278087  -2.09993709  -0.06705024 
O    1.67142598   0.24928362  -1.62213399 
C    2.17265496  -0.69055925  -2.33476834 
O    1.66785996  -1.80746286  -2.48906325 
C    3.46983014  -0.31629837  -3.03098339 
H    3.86290093  -1.20989556  -3.47518859 
H    4.20257104   0.10333733  -2.35231207 
H    3.29423274   0.39905887  -3.82046042 
*
