! EnGrad PBEh-3c
%output 
xyzfile=True 
end 
%scf 
maxiter 250 
end
%output
Print[P_Hirshfeld] = 1
end
% maxcore
4000
*xyz 0 1
Pd   0.42152568   0.24647486  -0.13957589 
O    1.94196971   1.29043501   0.61850923 
C    1.71802588   2.61706899   0.35567874 
O    0.68296863   2.97562504  -0.15059090 
C    2.88032497   3.57958319   0.64892996 
H    2.46732459   4.49709661   1.08280688 
H    3.33552183   3.87109595  -0.29917469 
H    3.64476579   3.18150724   1.29886541 
N   -1.34765841  -0.88121166  -0.99753673 
C   -1.03384094  -2.18021317  -1.59363709 
H   -0.32100721  -2.06481310  -2.37747730 
H   -1.94836258  -2.58052267  -2.01223486 
H   -0.63782458  -2.84211946  -0.82920974 
C   -1.92286738   0.00571117  -2.01573791 
H   -2.02803956   1.01730894  -1.65338569 
H   -2.88839524  -0.39921068  -2.30265178 
H   -1.27480963   0.00267226  -2.88743775 
C   -1.76027208  -1.10282655   1.49742463 
C   -2.02015191  -2.14038551   2.41562101 
C   -1.65426450  -2.00834397   3.73902490 
C   -1.03754802  -0.85252394   4.17211816 
C   -0.84745243   0.21356326   3.28409421 
C   -1.08472154   0.01128836   1.94131500 
H   -0.76034128  -0.73454104   5.21639108 
H   -0.56834986   1.14358050   3.71710880 
H   -2.66047563  -2.95962400   2.14849843 
H   -1.99099630  -2.72904974   4.47260633 
H   -1.26654803   3.73226948   0.99190119 
C   -2.33764419  -1.08702927   0.13914433 
H   -3.05354484  -0.26401180   0.13180743 
H   -2.93258244  -1.97724959  -0.05949502 
O    1.49834303   0.51337034  -1.92592692 
C    2.25581351  -0.47557108  -2.34752002 
O    2.16234914  -1.64134962  -2.07212632 
C    3.36121755  -0.06233925  -3.38671289 
H    3.73867469  -0.93673257  -3.90940497 
H    4.19344353   0.33684919  -2.80266213 
H    3.07679955   0.68486579  -4.11457100 
*
