! EnGrad PBEh-3c
%output 
xyzfile=True 
end 
%scf 
maxiter 250 
end
%output
Print[P_Hirshfeld] = 1
end
% maxcore
4000
*xyz 0 1
Pd   0.41665115   0.22463551  -0.15389950 
O    1.95144581   1.30151567   0.62272048 
C    1.71363541   2.61888697   0.34869325 
O    0.70837783   2.97063447  -0.14413069 
C    2.88403452   3.58095493   0.64899095 
H    2.47319682   4.49902908   1.08398172 
H    3.33847486   3.86997713  -0.29876174 
H    3.64429283   3.17925950   1.29654255 
N   -1.34022347  -0.87723799  -0.98996184 
C   -1.03203604  -2.17874646  -1.58213627 
H   -0.32072034  -2.07865660  -2.36694967 
H   -1.93778236  -2.59021558  -2.01381726 
H   -0.63570716  -2.84159548  -0.81943115 
C   -1.91727970  -0.00332008  -2.01668414 
H   -2.02362264   1.00867752  -1.66445807 
H   -2.88314617  -0.40780166  -2.30813804 
H   -1.27557286  -0.00936195  -2.89325684 
C   -1.74656685  -1.11421122   1.48978971 
C   -2.02787705  -2.14031415   2.41869675 
C   -1.66880512  -2.00399978   3.74291104 
C   -1.02808550  -0.86055838   4.17167896 
C   -0.83839106   0.20482617   3.28046717 
C   -1.10340507   0.01368043   1.94172370 
H   -0.76046964  -0.73858163   5.21758306 
H   -0.56054298   1.13252734   3.71886182 
H   -2.68291371  -2.94909361   2.15814172 
H   -2.01112576  -2.72192077   4.47714519 
H   -1.26430886   3.74929251   0.98817617 
C   -2.33766033  -1.08354027   0.13984439 
H   -3.05717173  -0.26075802   0.13131549 
H   -2.94281688  -1.96909299  -0.05385050 
O    1.49995282   0.51443966  -1.92355319 
C    2.25529610  -0.46399918  -2.35609733 
O    2.17005829  -1.62857828  -2.04693208 
C    3.35364408  -0.05494328  -3.39478998 
H    3.73009875  -0.92555663  -3.92068483 
H    4.18974910   0.34371957  -2.81289347 
H    3.06838514   0.69092041  -4.12097794 
*
