! EnGrad PBEh-3c
%output 
xyzfile=True 
end 
%scf 
maxiter 250 
end
%output
Print[P_Hirshfeld] = 1
end
% maxcore
4000
*xyz 0 1
Pd   0.41986834   0.23904948  -0.14444592 
O    1.94519158   1.29420244   0.61994105 
C    1.71653312   2.61768710   0.35330367 
O    0.69160775   2.97392825  -0.14839443 
C    2.88158622   3.58004958   0.64895070 
H    2.46932115   4.49775365   1.08320633 
H    3.33652586   3.87071555  -0.29903429 
H    3.64460498   3.18074301   1.29807564 
N   -1.34513053  -0.87986061  -0.99496127 
C   -1.03322728  -2.17971449  -1.58972681 
H   -0.32090967  -2.06951989  -2.37389790 
H   -1.94476531  -2.58381826  -2.01277288 
H   -0.63710466  -2.84194131  -0.82588502 
C   -1.92096757   0.00264055  -2.01605963 
H   -2.02653781   1.01437426  -1.65715030 
H   -2.88661055  -0.40213162  -2.30451711 
H   -1.27506913  -0.00141937  -2.88941624 
C   -1.75561230  -1.10669734   1.49482875 
C   -2.02277846  -2.14036125   2.41666676 
C   -1.65920831  -2.00686695   3.74034619 
C   -1.03433077  -0.85525565   4.17196883 
C   -0.84437156   0.21059265   3.28286102 
C   -1.09107394   0.01210166   1.94145396 
H   -0.76038492  -0.73591484   5.21679635 
H   -0.56569552   1.13982243   3.71770483 
H   -2.66810457  -2.95604367   2.15177715 
H   -1.99784032  -2.72662589   4.47414954 
H   -1.26578671   3.73805731   0.99063468 
C   -2.33764968  -1.08584301   0.13938235 
H   -3.05477798  -0.26290552   0.13164017 
H   -2.93606215  -1.97447635  -0.05757588 
O    1.49889035   0.51373391  -1.92511985 
C    2.25563760  -0.47163664  -2.35043631 
O    2.16497025  -1.63700736  -2.06356028 
C    3.35864257  -0.05982462  -3.38945910 
H    3.73575887  -0.93293275  -3.91324012 
H    4.19218742   0.33918512  -2.80614078 
H    3.07393865   0.68692436  -4.11674936 
*
