! EnGrad PBEh-3c
%output 
xyzfile=True 
end 
%scf 
maxiter 250 
end
%output
Print[P_Hirshfeld] = 1
end
% maxcore
4000
*xyz 0 1
Pd   0.44136198   0.41961379  -0.03045179 
O    1.86390552   1.24544684   0.58500599 
C    1.62096618   2.61331067   0.34775306 
O    0.59843995   2.96995901  -0.13294511 
C    2.84334705   3.56568688   0.65043755 
H    2.41295599   4.47882596   1.07174496 
H    3.30536807   3.87947203  -0.30145176 
H    3.64325864   3.20344136   1.31647546 
N   -1.39884449  -0.89385675  -1.03537905 
C   -1.05611204  -2.17571872  -1.69122068 
H   -0.32934752  -1.94085180  -2.47884556 
H   -2.04770664  -2.49984708  -2.01008153 
H   -0.65641119  -2.84571772  -0.92771960 
C   -1.96928572   0.08321597  -1.99724619 
H   -2.06874172   1.09254335  -1.54925158 
H   -2.94270107  -0.31550873  -2.25831360 
H   -1.27351121   0.11909891  -2.83531022 
C   -1.85806425  -1.01943670   1.55508137 
C   -1.95086818  -2.13634114   2.38870643 
C   -1.52332793  -2.04065534   3.70665089 
C   -1.11704967  -0.78129981   4.18004315 
C   -0.92595235   0.28697135   3.31584492 
C   -0.93391137   0.00221096   1.92983049 
H   -0.76487782  -0.69564460   5.20506772 
H   -0.64584609   1.24857636   3.70474698 
H   -2.44696566  -3.05732612   2.05880394 
H   -1.79633826  -2.79807280   4.42945793 
H   -1.28983893   3.57167328   1.02795467 
C   -2.33330658  -1.11414784   0.12269611 
H   -3.02909174  -0.29587600   0.13119549 
H   -2.84196830  -2.05438268  -0.10425075 
O    1.50171953   0.47416518  -1.92806112 
C    2.25820800  -0.53917804  -2.31601607 
O    2.07606401  -1.77615122  -2.28602396 
C    3.42880144  -0.13458751  -3.30058426 
H    3.81652110  -1.03948051  -3.80112429 
H    4.23391787   0.27314604  -2.70471506 
H    3.15953011   0.62302305  -4.05276402 
*
