! EnGrad PBEh-3c
%output 
xyzfile=True 
end 
%scf 
maxiter 250 
end
%output
Print[P_Hirshfeld] = 1
end
% maxcore
4000
*xyz 0 1
Pd   0.42677857   0.29710114  -0.10779666 
O    1.91905801   1.27852745   0.60870938 
C    1.68580823   2.61628007   0.35151914 
O    0.66165418   2.97265213  -0.14342745 
C    2.86929227   3.57543195   0.64942872 
H    2.45119968   4.49166837   1.07952148 
H    3.32650859   3.87353077  -0.29981151 
H    3.64417213   3.18804056   1.30399121 
N   -1.36239964  -0.88436039  -1.00795563 
C   -1.04058476  -2.17842984  -1.62235722 
H   -0.32362245  -2.02815293  -2.40763871 
H   -1.97786108  -2.55682141  -2.01190761 
H   -0.64331174  -2.84315543  -0.85862497 
C   -1.93650192   0.02854565  -2.01001108 
H   -2.04010642   1.03950572  -1.62246072 
H   -2.90464373  -0.37428225  -2.28966262 
H   -1.27456826   0.03732742  -2.87202108 
C   -1.78855074  -1.07864293   1.51420005 
C   -1.99965921  -2.13906878   2.40767748 
C   -1.61552259  -2.01772996   3.72951311 
C   -1.06092500  -0.83147875   4.17456474 
C   -0.87059989   0.23514850   3.29346539 
C   -1.04054596   0.00892179   1.93771700 
H   -0.76182940  -0.72296791   5.21302558 
H   -0.59146403   1.17478696   3.71353886 
H   -2.59700812  -2.98860611   2.12188614 
H   -1.93305714  -2.74959617   4.45978113 
H   -1.27351953   3.68456462   1.00263311 
C   -2.33625337  -1.09494305   0.13401770 
H   -3.04651982  -0.27350557   0.13149721 
H   -2.90581085  -2.00016634  -0.07258191 
O    1.49979994   0.50101251  -1.92606547 
C    2.25646398  -0.49335129  -2.33937016 
O    2.13638678  -1.68174229  -2.13508265 
C    3.38119874  -0.08386099  -3.36088572 
H    3.76172403  -0.96718799  -3.87719473 
H    4.20560382   0.31795347  -2.77353228 
H    3.10145642   0.66638001  -4.09617799 
*
