! EnGrad PBEh-3c
%output 
xyzfile=True 
end 
%scf 
maxiter 250 
end
%output
Print[P_Hirshfeld] = 1
end
% maxcore
4000
*xyz 0 1
Pd   0.71894531   0.57802590  -0.52479584 
O    2.22473445   1.53417249   0.27748539 
C    1.63647292   2.67250171   0.26104674 
O    0.43476776   2.70651529  -0.07102425 
C    2.46389503   3.91633149   0.55829036 
H    1.85234917   4.68140063   1.03448507 
H    2.82516950   4.34391373  -0.38430757 
H    3.34034284   3.71449511   1.17943310 
N   -1.22968829  -0.30562733  -1.19199413 
C   -1.24803258  -1.01236058  -2.49606611 
H   -0.92414515  -0.30825940  -3.25839274 
H   -2.28634823  -1.31418579  -2.69763890 
H   -0.59247399  -1.88257004  -2.49480465 
C   -2.14815573   0.83816211  -1.25784093 
H   -2.15732340   1.40531630  -0.32541503 
H   -3.16098679   0.46913992  -1.46791515 
H   -1.81778867   1.45132631  -2.09537405 
C   -1.52874817  -0.84910719   1.33174793 
C   -0.51606296  -1.63458190   1.97907586 
C   -0.28994835  -1.53708075   3.35620968 
C   -1.28153984  -0.93577697   4.09185568 
C   -2.29704131  -0.16342643   3.48038572 
C   -2.42852395   0.01115673   2.12889674 
H   -1.16046672  -0.80238800   5.16471952 
H   -3.17109402   0.08547625   4.05208369 
H    0.16323282  -2.30960507   1.42300803 
H    0.49116764  -2.11319635   3.85953777 
H   -2.77813219   0.98354722   1.92636760 
C   -1.70558764  -1.25007354  -0.13850155 
H   -2.77495542  -1.43535538  -0.29028277 
H   -1.22810996  -2.22706076  -0.32972728 
O    1.75923524  -1.01046671  -1.10666214 
C    2.25993330  -0.80478171  -2.29909840 
O    1.85015947   0.01800181  -3.09937448 
C    3.45115729  -1.71865642  -2.58899046 
H    3.22178948  -2.77239283  -2.41571909 
H    4.29925431  -1.45626234  -1.95334704 
H    3.74075067  -1.58217006  -3.63025100 
*
