! EnGrad PBEh-3c
%output 
xyzfile=True 
end 
%scf 
maxiter 250 
end
%output
Print[P_Hirshfeld] = 1
end
% maxcore
4000
*xyz 0 1
Pd   0.69375273   0.52111044  -0.52732641 
O    2.18309081   1.50909431   0.27944513 
C    1.61647880   2.62756404   0.27617031 
O    0.38794769   2.66097254  -0.05125318 
C    2.47713221   3.83515793   0.56523949 
H    1.92311138   4.64972488   1.03253582 
H    2.87293744   4.25226794  -0.37079674 
H    3.35785419   3.61223110   1.18863636 
N   -1.25324502  -0.37005521  -1.18172191 
C   -1.24840691  -1.16899244  -2.45871667 
H   -0.89313704  -0.51437048  -3.26364808 
H   -2.28852558  -1.48521787  -2.66577419 
H   -0.57366108  -2.05146748  -2.38006076 
C   -2.18460346   0.77268289  -1.35117535 
H   -2.24322034   1.37563084  -0.41889263 
H   -3.19268730   0.38650931  -1.57391463 
H   -1.82532796   1.32410297  -2.22790984 
C   -1.60907877  -0.76908439   1.39138616 
C   -0.67705050  -1.66003236   1.98686777 
C   -0.39226728  -1.61113458   3.36537300 
C   -1.37295058  -0.94138010   4.11942034 
C   -2.24209924   0.01641045   3.55310508 
C   -2.20830632   0.13182000   2.18977481 
H   -1.22663011  -0.83831367   5.17906419 
H   -3.12384516   0.45031206   4.06710484 
H   -0.06500119  -2.41167939   1.41223390 
H    0.38279831  -2.22578977   3.86792054 
H   -2.04325948   1.16052466   1.98565884 
C   -1.79832528  -1.21153922  -0.09264107 
H   -2.86676581  -1.37934981  -0.28197977 
H   -1.35422474  -2.22071878  -0.22105110 
O    1.80538433  -0.99801094  -1.15331628 
C    2.25004366  -0.73042693  -2.34990821 
O    1.74900105   0.06526195  -3.11903316 
C    3.51157767  -1.54818907  -2.64339966 
H    3.35800960  -2.63447202  -2.50148723 
H    4.34468060  -1.26314042  -1.97652792 
H    3.78757640  -1.35144712  -3.67332803 
*
