! EnGrad PBEh-3c
%output 
xyzfile=True 
end 
%scf 
maxiter 250 
end
%output
Print[P_Hirshfeld] = 1
end
% maxcore
4000
*xyz 0 1
Pd   0.67237242   0.51850728  -0.53716165 
O    2.19603794   1.51640871   0.27756581 
C    1.62802203   2.63313927   0.27367562 
O    0.39963910   2.66200883  -0.04617653 
C    2.47106544   3.84741815   0.56380447 
H    1.91384790   4.65144453   1.03336440 
H    2.86511022   4.25744125  -0.37142457 
H    3.34816084   3.61835475   1.18446218 
N   -1.24368425  -0.36255188  -1.17263132 
C   -1.24949558  -1.14272726  -2.45134164 
H   -0.89629736  -0.49825930  -3.26189568 
H   -2.28055790  -1.46919130  -2.67086597 
H   -0.58225917  -2.02413734  -2.39039708 
C   -2.17663908   0.77374482  -1.34738759 
H   -2.23101049   1.37638958  -0.42125172 
H   -3.18723585   0.39888178  -1.56202185 
H   -1.82916249   1.34528430  -2.20622691 
C   -1.55773774  -0.82609082   1.37282509 
C   -0.65142968  -1.66084015   1.99059438 
C   -0.40735862  -1.61359226   3.36264493 
C   -1.35405286  -0.91221830   4.12845196 
C   -2.24826218  -0.05084687   3.56700116 
C   -2.20409912   0.09153625   2.17402369 
H   -1.22452164  -0.84639062   5.18467094 
H   -3.10989887   0.42839045   4.07407740 
H   -0.05663937  -2.38403562   1.41641573 
H    0.38565142  -2.20322371   3.85647325 
H   -2.16175740   1.19614176   1.94091531 
C   -1.78745729  -1.21205973  -0.09618996 
H   -2.85941097  -1.38197050  -0.28347097 
H   -1.34160191  -2.20864531  -0.22565304 
O    1.79462805  -0.99296989  -1.14860572 
C    2.25654526  -0.75404725  -2.32717343 
O    1.76350556   0.06155112  -3.12079509 
C    3.50103714  -1.56260886  -2.64399873 
H    3.34233323  -2.64195711  -2.49289627 
H    4.33396646  -1.28266683  -1.97679814 
H    3.78737370  -1.37876344  -3.66985133 
*
