! EnGrad PBEh-3c
%output 
xyzfile=True 
end 
%scf 
maxiter 250 
end
%output
Print[P_Hirshfeld] = 1
end
% maxcore
4000
*xyz 0 1
Pd   0.64791256   0.51322447  -0.54765589 
O    2.20814907   1.52041864   0.27563166 
C    1.63858241   2.63900383   0.27237327 
O    0.40915995   2.66069126  -0.04000509 
C    2.46605222   3.85372565   0.56246143 
H    1.90776768   4.65192208   1.03438887 
H    2.85999218   4.25764280  -0.37172470 
H    3.33891636   3.61884670   1.18057668 
N   -1.23467953  -0.35824077  -1.16180440 
C   -1.24980574  -1.12467305  -2.44142978 
H   -0.89751096  -0.49291178  -3.26006382 
H   -2.27299177  -1.46243047  -2.67412874 
H   -0.59025595  -2.00496692  -2.39380377 
C   -2.17008012   0.77115469  -1.34693966 
H   -2.22248390   1.37545965  -0.42956885 
H   -3.18371959   0.40658722  -1.55631854 
H   -1.83295569   1.36113731  -2.19187516 
C   -1.52498611  -0.86284009   1.35758151 
C   -0.63202205  -1.66699339   1.99776267 
C   -0.42667408  -1.62209174   3.36305472 
C   -1.33396114  -0.88771768   4.14092023 
C   -2.26010662  -0.09775789   3.56571060 
C   -2.16635734   0.07890485   2.16357061 
H   -1.22511091  -0.85711491   5.19378345 
H   -3.08878956   0.42560286   4.08421199 
H   -0.05857842  -2.36469039   1.41970459 
H    0.38127784  -2.18679899   3.84568403 
H   -2.25834347   1.20869361   1.90127458 
C   -1.78065539  -1.21344539  -0.09694386 
H   -2.85608854  -1.38043609  -0.28328340 
H   -1.33584540  -2.19743541  -0.22609982 
O    1.78564312  -0.98876561  -1.14244826 
C    2.25534976  -0.75875390  -2.32359171 
O    1.78008171   0.04663280  -3.11065705 
C    3.49403284  -1.56869380  -2.64563093 
H    3.33375020  -2.64139226  -2.48939782 
H    4.32504022  -1.29198298  -1.97880804 
H    3.78957411  -1.39322549  -3.66954957 
*
