! EnGrad PBEh-3c
%output 
xyzfile=True 
end 
%scf 
maxiter 250 
end
%output
Print[P_Hirshfeld] = 1
end
% maxcore
4000
*xyz 0 1
Pd   0.61038548   0.49328128  -0.55483286 
O    2.20931112   1.48253751   0.25499469 
C    1.62183681   2.61405043   0.27264436 
O    0.40416621   2.63700416  -0.00804120 
C    2.47016788   3.82568445   0.56559628 
H    1.92780952   4.63678612   1.03843089 
H    2.87583536   4.20350386  -0.37030662 
H    3.32443851   3.55539171   1.17793117 
N   -1.24903361  -0.37366627  -1.16300918 
C   -1.23973530  -1.18794760  -2.40352950 
H   -0.88203291  -0.60369284  -3.24814628 
H   -2.25144764  -1.54452954  -2.65305512 
H   -0.59975898  -2.05568993  -2.32616860 
C   -2.17734888   0.73684995  -1.39016400 
H   -2.25222363   1.35700807  -0.51110069 
H   -3.18921035   0.37006894  -1.60863991 
H   -1.84333276   1.32567448  -2.23918657 
C   -1.51467815  -0.85075494   1.36740553 
C   -0.68165135  -1.72831459   2.03803513 
C   -0.51061331  -1.67600313   3.40473125 
C   -1.33185320  -0.88524742   4.17761269 
C   -2.25624388  -0.03538571   3.54714512 
C   -2.02659660   0.22384542   2.17915307 
H   -1.26263617  -0.90850157   5.25912620 
H   -2.97240761   0.62366452   4.10160956 
H   -0.17042928  -2.41472699   1.40823617 
H    0.29484454  -2.21887168   3.82397726 
H   -2.04775792   1.25583262   1.84981626 
C   -1.81560168  -1.20189534  -0.07150704 
H   -2.89482042  -1.33401886  -0.26874655 
H   -1.39306788  -2.18423959  -0.17087510 
O    1.78032000  -0.98366787  -1.14592737 
C    2.25431465  -0.73162888  -2.33716730 
O    1.75046368   0.05709029  -3.11880156 
C    3.52156880  -1.48795363  -2.67134647 
H    3.39410879  -2.55638741  -2.53509633 
H    4.32554240  -1.19463516  -2.00158570 
H    3.82431591  -1.28640012  -3.69977186 
*
