! EnGrad PBEh-3c
%output 
xyzfile=True 
end 
%scf 
maxiter 250 
end
%output
Print[P_Hirshfeld] = 1
end
% maxcore
4000
*xyz 0 1
Pd   0.60740852   0.49375204  -0.55149995 
O    2.20646694   1.46018129   0.23859936 
C    1.61428908   2.59942413   0.27233536 
O    0.39849681   2.62953212   0.00778557 
C    2.47007259   3.81237037   0.56598732 
H    1.93232626   4.63021391   1.04056218 
H    2.88183774   4.18141775  -0.37284489 
H    3.31808126   3.52749251   1.17865100 
N   -1.26011970  -0.37959287  -1.16963320 
C   -1.23578708  -1.21353937  -2.39128448 
H   -0.87398936  -0.64677821  -3.23942570 
H   -2.24091433  -1.57605391  -2.63966439 
H   -0.60040448  -2.07668487  -2.29198161 
C   -2.18196894   0.72632282  -1.41140274 
H   -2.26236530   1.35436279  -0.54231337 
H   -3.18894854   0.35346372  -1.63138728 
H   -1.84593686   1.31457168  -2.25749120 
C   -1.51036807  -0.81699877   1.38253720 
C   -0.71213398  -1.75310211   2.05534430 
C   -0.54574832  -1.69116640   3.41934701 
C   -1.34594842  -0.89002916   4.19441970 
C   -2.23484579   0.01996388   3.53074028 
C   -1.97737388   0.26046183   2.18666325 
H   -1.27953050  -0.93047325   5.28479924 
H   -2.89800384   0.69620582   4.10133196 
H   -0.20741178  -2.44983388   1.40435948 
H    0.26746898  -2.24490177   3.82689857 
H   -1.99751467   1.26749683   1.81428121 
C   -1.82498225  -1.19331093  -0.05799472 
H   -2.90647044  -1.30985782  -0.25608470 
H   -1.41367967  -2.18927369  -0.15446731 
O    1.77459286  -0.98625709  -1.14830003 
C    2.24757474  -0.71297253  -2.34638960 
O    1.74259246   0.05603542  -3.11835234 
C    3.53261310  -1.45539879  -2.68264952 
H    3.41753448  -2.52360091  -2.55501778 
H    4.32566394  -1.15230511  -2.01000272 
H    3.83762219  -1.24213824  -3.71056412 
*
