! EnGrad PBEh-3c
%output 
xyzfile=True 
end 
%scf 
maxiter 250 
end
%output
Print[P_Hirshfeld] = 1
end
% maxcore
4000
*xyz 0 1
Pd   0.61334353   0.49575826  -0.54046373 
O    2.18540388   1.42544241   0.19488561 
C    1.61206718   2.55946334   0.27429080 
O    0.37824524   2.61256535   0.04439099 
C    2.46529063   3.77459449   0.56388361 
H    1.93922434   4.60910697   1.04208136 
H    2.89304453   4.13390634  -0.37957108 
H    3.30640173   3.46731448   1.18439268 
N   -1.27869436  -0.39384614  -1.17837005 
C   -1.23034688  -1.26880296  -2.36554830 
H   -0.85118086  -0.73119065  -3.22063746 
H   -2.22402895  -1.64284426  -2.60564380 
H   -0.59060786  -2.12780697  -2.20653312 
C   -2.19624093   0.70811882  -1.46228638 
H   -2.28236652   1.35829593  -0.60038471 
H   -3.18938407   0.31554102  -1.68460232 
H   -1.84589932   1.29474904  -2.30157235 
C   -1.48160747  -0.76614985   1.41747746 
C   -0.79643383  -1.78360270   2.06420494 
C   -0.60663194  -1.72777403   3.45179285 
C   -1.40837826  -0.88641383   4.21648331 
C   -2.12486812   0.14730393   3.53728421 
C   -1.90518283   0.32251115   2.18011319 
H   -1.32301960  -0.96829655   5.31784967 
H   -2.70864423   0.84610041   4.08998282 
H   -0.28860210  -2.53110572   1.42004210 
H    0.20623038  -2.31942222   3.85468368 
H   -1.93866525   1.28906172   1.72472035 
C   -1.83149444  -1.16763769  -0.03005525 
H   -2.92317183  -1.25034704  -0.21204074 
H   -1.46037760  -2.20065791  -0.12601419 
O    1.76230422  -0.99314325  -1.16795514 
C    2.24116250  -0.69357236  -2.34666144 
O    1.71304289   0.07242136  -3.13323531 
C    3.54855139  -1.38029693  -2.70830848 
H    3.46669006  -2.45958733  -2.59969241 
H    4.33062490  -1.05667668  -2.02323175 
H    3.86159684  -1.14473872  -3.72773692 
*
