! EnGrad PBEh-3c
%output 
xyzfile=True 
end 
%scf 
maxiter 250 
end
%output
Print[P_Hirshfeld] = 1
end
% maxcore
4000
*xyz 0 1
Pd   0.69380609   0.60591111  -0.54397094 
O    2.28733005   1.56318285   0.28198255 
C    1.65868031   2.73051757   0.24544261 
O    0.49096416   2.73798282  -0.07934085 
C    2.44842254   3.98501188   0.55112673 
H    1.79100102   4.70561487   1.03575671 
H    2.78144941   4.41633988  -0.39304100 
H    3.31537763   3.79797187   1.16615404 
N   -1.19384795  -0.25221403  -1.17655947 
C   -1.24602021  -0.86507441  -2.51017501 
H   -0.94832986  -0.13528591  -3.25553566 
H   -2.27961693  -1.17133094  -2.72953183 
H   -0.61692628  -1.72366409  -2.58920194 
C   -2.10837247   0.88614997  -1.17974736 
H   -2.07824014   1.42775565  -0.25971546 
H   -3.13440468   0.54543115  -1.37697517 
H   -1.81564708   1.57275453  -1.97192240 
C   -1.43135194  -0.93774942   1.26551564 
C   -0.37525383  -1.59524476   1.97854443 
C   -0.23753511  -1.49604852   3.33725497 
C   -1.19928359  -0.87479480   4.07264583 
C   -2.34240667  -0.37811345   3.43845075 
C   -2.45312875  -0.19867833   2.08092953 
H   -1.10877847  -0.78524292   5.15386027 
H   -3.19231722  -0.19209584   4.06314246 
H    0.33385911  -2.20058324   1.43642963 
H    0.57884044  -2.00644139   3.84377172 
H   -3.54984985   0.88063656   1.80504649 
C   -1.63118494  -1.27668068  -0.16819906 
H   -2.69823351  -1.47883519  -0.30016164 
H   -1.12001445  -2.21821777  -0.41623111 
O    1.71472485  -1.01261676  -1.06207234 
C    2.26656610  -0.86670902  -2.26130410 
O    1.94949507  -0.04313460  -3.06451344 
C    3.39368386  -1.86208632  -2.54540606 
H    3.10237429  -2.88052723  -2.34337309 
H    4.25114140  -1.62350024  -1.93655058 
H    3.70395730  -1.78296047  -3.59519116 
*
