! EnGrad PBEh-3c
%output 
xyzfile=True 
end 
%scf 
maxiter 250 
end
%output
Print[P_Hirshfeld] = 1
end
% maxcore
4000
*xyz 0 1
Pd   0.60566690   0.48382747  -0.55509104 
O    2.20139832   1.44365866   0.16518323 
C    1.60693292   2.56222483   0.27032439 
O    0.36972413   2.59700207   0.06740894 
C    2.46642419   3.76021251   0.56182274 
H    1.91747117   4.57040138   1.02627770 
H    2.88003290   4.12647889  -0.37812994 
H    3.30412150   3.47167003   1.19328168 
N   -1.25139682  -0.37012893  -1.16697860 
C   -1.21496665  -1.25834573  -2.34980005 
H   -0.83294086  -0.70900239  -3.20205445 
H   -2.22482911  -1.62801750  -2.57828570 
H   -0.56653889  -2.11103386  -2.16472095 
C   -2.18268061   0.72916293  -1.45756599 
H   -2.27377853   1.38409431  -0.59543104 
H   -3.17546926   0.32572556  -1.69770176 
H   -1.82436893   1.30944099  -2.30214728 
C   -1.47451319  -0.80739180   1.38985735 
C   -0.74422442  -1.76558159   2.07671571 
C   -0.59267215  -1.75572517   3.44799590 
C   -1.32812621  -0.85904102   4.17717751 
C   -1.98735502   0.17673689   3.49758911 
C   -1.96000431   0.28118049   2.12912240 
H   -1.36248744  -0.91710844   5.26592790 
H   -2.56360751   0.87981673   4.09380906 
H   -0.28729338  -2.55981744   1.50936708 
H    0.12069825  -2.39005976   3.92366530 
H   -2.27204183   1.20108780   1.66749471 
C   -1.80102856  -1.16557994  -0.04001746 
H   -2.88792663  -1.20882436  -0.14038914 
H   -1.46092688  -2.19028054  -0.16792733 
O    1.74537742  -1.00943066  -1.18900172 
C    2.22672867  -0.69965251  -2.36299590 
O    1.71163604   0.08483058  -3.13275934 
C    3.53861252  -1.38704767  -2.69592496 
H    3.45985704  -2.46735096  -2.60456303 
H    4.32037792  -1.05368845  -2.01369867 
H    3.83627045  -1.13608749  -3.70871738 
*
