! EnGrad PBEh-3c
%output 
xyzfile=True 
end 
%scf 
maxiter 250 
end
%output
Print[P_Hirshfeld] = 1
end
% maxcore
4000
*xyz 0 1
Pd   0.60875803   0.48557647  -0.55544150 
O    2.20320691   1.44174351   0.15748825 
C    1.60682791   2.55928420   0.26915537 
O    0.36747308   2.59371029   0.07164183 
C    2.46463126   3.75776108   0.56150965 
H    1.91163712   4.56751572   1.02561648 
H    2.87907711   4.12550009  -0.37934069 
H    3.30417174   3.47195253   1.19491103 
N   -1.25152712  -0.36702482  -1.16653428 
C   -1.21167502  -1.25523458  -2.34708212 
H   -0.82984716  -0.70711295  -3.19823554 
H   -2.22004100  -1.62381923  -2.57186945 
H   -0.56336198  -2.10614640  -2.15850968 
C   -2.17938633   0.73280736  -1.45694411 
H   -2.27254041   1.38844018  -0.59611129 
H   -3.16926406   0.32937072  -1.69906029 
H   -1.82016481   1.31124318  -2.30126728 
C   -1.47256203  -0.80332562   1.39137634 
C   -0.73433327  -1.76794396   2.07642334 
C   -0.59055444  -1.75503841   3.44844811 
C   -1.31497890  -0.84342084   4.17382375 
C   -1.97931277   0.18522657   3.49261619 
C   -1.96671462   0.27519184   2.11869458 
H   -1.36477131  -0.90643229   5.26152844 
H   -2.53274560   0.88704551   4.09057823 
H   -0.28075474  -2.57221175   1.51717857 
H    0.10801925  -2.41299316   3.93762431 
H   -2.33274279   1.17726208   1.65817438 
C   -1.79757281  -1.16617912  -0.03771150 
H   -2.88719729  -1.20156645  -0.13296655 
H   -1.45916992  -2.19312540  -0.17738887 
O    1.73964186  -1.01300792  -1.19234840 
C    2.22410850  -0.69906261  -2.36398488 
O    1.71196643   0.08674394  -3.13363235 
C    3.53596440  -1.38763214  -2.69503517 
H    3.45896456  -2.46907137  -2.60478550 
H    4.31710596  -1.05362237  -2.01138334 
H    3.83301341  -1.13399822  -3.70780251 
*
