! EnGrad PBEh-3c
%output 
xyzfile=True 
end 
%scf 
maxiter 250 
end
%output
Print[P_Hirshfeld] = 1
end
% maxcore
4000
*xyz 0 1
Pd   0.61462619   0.48834580  -0.55836075 
O    2.20895994   1.44215022   0.13889954 
C    1.60872426   2.55389137   0.26621158 
O    0.36481890   2.58332257   0.08107376 
C    2.45932207   3.75399022   0.56094185 
H    1.89486814   4.55976070   1.02290832 
H    2.87508579   4.12598905  -0.38105361 
H    3.30423525   3.47807807   1.19843462 
N   -1.24714214  -0.35803212  -1.15905221 
C   -1.20233779  -1.24096306  -2.33937888 
H   -0.82166170  -0.69403943  -3.19062790 
H   -2.20921215  -1.60726206  -2.55684052 
H   -0.55374649  -2.08855427  -2.14728084 
C   -2.16826920   0.74462232  -1.45073882 
H   -2.26716383   1.40138108  -0.59278402 
H   -3.15307205   0.34309971  -1.69936184 
H   -1.80666948   1.31853213  -2.29651991 
C   -1.45995024  -0.81127136   1.38598656 
C   -0.70178054  -1.76891214   2.07368049 
C   -0.57264559  -1.75417803   3.44959318 
C   -1.27534878  -0.79510564   4.16317921 
C   -1.95524874   0.19154293   3.48276567 
C   -1.99685668   0.25373057   2.09384179 
H   -1.36530295  -0.86840756   5.24121568 
H   -2.46442044   0.90341706   4.08430663 
H   -0.25686025  -2.59871148   1.53921384 
H    0.06888783  -2.47092525   3.97327977 
H   -2.51441796   1.10785127   1.63736571 
C   -1.78914761  -1.16997703  -0.03532558 
H   -2.88327253  -1.18604780  -0.11606950 
H   -1.45184051  -2.19706897  -0.20563661 
O    1.72374848  -1.02152380  -1.20213300 
C    2.21928666  -0.70380264  -2.36372182 
O    1.71327676   0.09439090  -3.13730359 
C    3.52589914  -1.39437315  -2.69089750 
H    3.45241871  -2.47866145  -2.60184955 
H    4.30691733  -1.06126692  -2.00334439 
H    3.82173865  -1.13555917  -3.70367012 
*
