! EnGrad PBEh-3c
%output 
xyzfile=True 
end 
%scf 
maxiter 250 
end
%output
Print[P_Hirshfeld] = 1
end
% maxcore
4000
*xyz 0 1
Pd   0.61479418   0.48875863  -0.55845213 
O    2.20939734   1.43870465   0.13027386 
C    1.61006156   2.54943085   0.26586743 
O    0.36588583   2.57586892   0.08613334 
C    2.45672147   3.75159327   0.56118746 
H    1.89070540   4.55748007   1.02273562 
H    2.87522922   4.12238124  -0.38075149 
H    3.30212505   3.47637951   1.19846542 
N   -1.24615805  -0.35803531  -1.15227056 
C   -1.19813972  -1.23902749  -2.33350043 
H   -0.81682426  -0.69674171  -3.18895445 
H   -2.20405445  -1.60756527  -2.55074023 
H   -0.54984618  -2.08671221  -2.13977918 
C   -2.16433015   0.74617767  -1.45153136 
H   -2.26700684   1.40555239  -0.59622905 
H   -3.14871924   0.34580382  -1.70317023 
H   -1.80059339   1.31842365  -2.29893262 
C   -1.44794142  -0.81545333   1.38480666 
C   -0.69779846  -1.77420790   2.07467245 
C   -0.56850786  -1.75315201   3.45667023 
C   -1.26327860  -0.78316348   4.16386093 
C   -1.94838443   0.20246392   3.48261907 
C   -2.00399912   0.25245253   2.08873077 
H   -1.36021399  -0.85199608   5.23702835 
H   -2.43924188   0.92838497   4.08160428 
H   -0.25436134  -2.61120298   1.54146685 
H    0.04576800  -2.49409084   3.98178108 
H   -2.55639154   1.08144681   1.62991065 
C   -1.79191409  -1.17175872  -0.03404116 
H   -2.88699726  -1.17953286  -0.11452566 
H   -1.45470371  -2.19749300  -0.21066929 
O    1.71658268  -1.02381978  -1.20617450 
C    2.21526147  -0.70099614  -2.36674598 
O    1.71373128   0.09525463  -3.13637045 
C    3.52367800  -1.39051274  -2.69274273 
H    3.45421072  -2.47567100  -2.60377889 
H    4.30250108  -1.05785452  -2.00165586 
H    3.82102326  -1.12856777  -3.70518779 
*
