! EnGrad PBEh-3c
%output 
xyzfile=True 
end 
%scf 
maxiter 250 
end
%output
Print[P_Hirshfeld] = 1
end
% maxcore
4000
*xyz 0 1
Pd   0.61103155   0.48625934  -0.55867050 
O    2.21071658   1.43316913   0.11490646 
C    1.61223704   2.54176810   0.26602466 
O    0.36801796   2.56135858   0.09675461 
C    2.45323748   3.74548956   0.56154436 
H    1.88605206   4.55076832   1.02155376 
H    2.87558476   4.11267796  -0.37893316 
H    3.29652513   3.46998263   1.19810530 
N   -1.24246287  -0.35846797  -1.14006142 
C   -1.19035247  -1.24066725  -2.32165456 
H   -0.80693904  -0.70618549  -3.18564359 
H   -2.19720254  -1.61431438  -2.54005394 
H   -0.54202514  -2.08842456  -2.12191582 
C   -2.15878515   0.74700951  -1.45591734 
H   -2.26775007   1.41291776  -0.60521639 
H   -3.14448094   0.34682235  -1.71380489 
H   -1.78947703   1.31645768  -2.30649322 
C   -1.42935638  -0.82308466   1.38153997 
C   -0.69471666  -1.78608838   2.08299875 
C   -0.56777158  -1.75467640   3.46752977 
C   -1.24709037  -0.77149893   4.16319164 
C   -1.92166324   0.22599255   3.47806708 
C   -2.01130488   0.24814656   2.08713660 
H   -1.35140210  -0.82427723   5.23207014 
H   -2.39443895   0.98471869   4.07897014 
H   -0.26097361  -2.62962115   1.54889950 
H   -0.00042935  -2.52957791   3.99410369 
H   -2.61166029   1.04161293   1.61333594 
C   -1.79722083  -1.17394584  -0.03258290 
H   -2.89279898  -1.16643162  -0.10969213 
H   -1.46585998  -2.19567072  -0.21430247 
O    1.70502745  -1.02692976  -1.21468044 
C    2.20976503  -0.69924363  -2.37021148 
O    1.71063413   0.10076647  -3.13755180 
C    3.52165436  -1.37875313  -2.69746362 
H    3.46038933  -2.46469221  -2.61061987 
H    4.29535199  -1.04557293  -2.00047483 
H    3.82169273  -1.11036707  -3.70808114 
*
