! EnGrad PBEh-3c
%output 
xyzfile=True 
end 
%scf 
maxiter 250 
end
%output
Print[P_Hirshfeld] = 1
end
% maxcore
4000
*xyz 0 1
Pd   0.67304720   0.59787745  -0.55338554 
O    2.28574902   1.59277582   0.28506725 
C    1.69373748   2.72412071   0.24939944 
O    0.49210242   2.74181791  -0.08142098 
C    2.43925861   3.98838418   0.54790348 
H    1.78521975   4.70850643   1.03601885 
H    2.77692180   4.42352869  -0.39378203 
H    3.31189828   3.80559060   1.16439483 
N   -1.17811766  -0.25266550  -1.15646015 
C   -1.25249880  -0.83997372  -2.50591073 
H   -0.95024907  -0.11682934  -3.25844869 
H   -2.27815463  -1.15775366  -2.73621698 
H   -0.61944627  -1.70646410  -2.59890386 
C   -2.10348834   0.88423336  -1.17890514 
H   -2.06690690   1.43088300  -0.25339402 
H   -3.13258167   0.55600672  -1.36720340 
H   -1.81686310   1.59067684  -1.95638530 
C   -1.42544129  -0.94335857   1.27267205 
C   -0.37094967  -1.57715364   1.96655823 
C   -0.23720037  -1.50510279   3.33743290 
C   -1.19135109  -0.84416498   4.07227349 
C   -2.35114899  -0.42167819   3.43196216 
C   -2.40247096  -0.23328100   2.05850488 
H   -1.10268360  -0.78675535   5.15182742 
H   -3.19264993  -0.21602497   4.07573814 
H    0.35029394  -2.18724695   1.44035906 
H    0.58853053  -1.99345869   3.84249904 
H   -3.66224361   0.86518643   1.78385746 
C   -1.62152554  -1.27974694  -0.17438079 
H   -2.69131610  -1.48362807  -0.30020035 
H   -1.10945408  -2.21446355  -0.42598237 
O    1.71235750  -1.00583989  -1.06371521 
C    2.26813372  -0.88400298  -2.24388211 
O    1.96214577  -0.05044944  -3.06172951 
C    3.38064150  -1.86997733  -2.54823178 
H    3.08808655  -2.89235660  -2.33533662 
H    4.24731595  -1.64151646  -1.93339436 
H    3.70166866  -1.80671407  -3.59024483 
*
