! EnGrad PBEh-3c
%output 
xyzfile=True 
end 
%scf 
maxiter 250 
end
%output
Print[P_Hirshfeld] = 1
end
% maxcore
4000
*xyz 0 1
Pd   0.59572960   0.47364516  -0.55276290 
O    2.21888101   1.42015595   0.09451961 
C    1.61768764   2.52233871   0.26732274 
O    0.37148404   2.53275587   0.11716708 
C    2.44803129   3.73252425   0.56284205 
H    1.88979742   4.54279944   1.02144625 
H    2.88072014   4.08802706  -0.37247531 
H    3.28307450   3.44857547   1.19625698 
N   -1.24216930  -0.36558305  -1.13057587 
C   -1.17778118  -1.26285477  -2.30398339 
H   -0.78930588  -0.74375874  -3.17745597 
H   -2.18324205  -1.64604778  -2.52651169 
H   -0.52987723  -2.10798712  -2.08915194 
C   -2.15535496   0.73836287  -1.47323984 
H   -2.27270198   1.41986027  -0.63343178 
H   -3.14381866   0.33937882  -1.74013151 
H   -1.76786058   1.29744708  -2.32505901 
C   -1.42166744  -0.83937281   1.39882147 
C   -0.71637319  -1.80603298   2.09942394 
C   -0.59440846  -1.76720379   3.48009359 
C   -1.25160750  -0.75670215   4.16775604 
C   -1.88603849   0.28046786   3.48930882 
C   -1.99067569   0.23530528   2.10846403 
H   -1.30209691  -0.77252173   5.24857122 
H   -2.34575723   1.10237435   4.05787915 
H   -0.30277499  -2.64532013   1.54655350 
H   -0.09008161  -2.56009021   3.99120432 
H   -2.55601108   0.99187570   1.60202877 
C   -1.81862897  -1.16961114  -0.02020031 
H   -2.91344114  -1.15285638  -0.12204272 
H   -1.50867132  -2.19673533  -0.19597131 
O    1.68982431  -1.03037052  -1.22798661 
C    2.19896185  -0.68959278  -2.38059020 
O    1.69924775   0.11255399  -3.13984918 
C    3.52583427  -1.34179267  -2.71378294 
H    3.48188117  -2.42489437  -2.63305482 
H    4.28338848  -1.00626302  -2.00537684 
H    3.83479141  -1.06056013  -3.71887509 
*
