! EnGrad PBEh-3c
%output 
xyzfile=True 
end 
%scf 
maxiter 250 
end
%output
Print[P_Hirshfeld] = 1
end
% maxcore
4000
*xyz 0 1
Pd   0.73778792   0.60670207  -0.52114009 
O    2.24456789   1.53242317   0.27282076 
C    1.64430553   2.69741255   0.25565788 
O    0.44558433   2.72427302  -0.08031080 
C    2.45819451   3.95137346   0.55498998 
H    1.82185041   4.69486818   1.03566587 
H    2.80461155   4.38207417  -0.39008062 
H    3.33309607   3.75672639   1.17609094 
N   -1.22407018  -0.27567094  -1.20364236 
C   -1.24905401  -0.94512074  -2.51471251 
H   -0.93740694  -0.22388676  -3.25319888 
H   -2.28253247  -1.24155729  -2.70892687 
H   -0.59863605  -1.81337229  -2.54266297 
C   -2.13432024   0.86745194  -1.22107678 
H   -2.12248042   1.41854888  -0.28448005 
H   -3.14534547   0.50387270  -1.42257991 
H   -1.81498736   1.50274845  -2.03871187 
C   -1.48287219  -0.89209026   1.30882120 
C   -0.44770418  -1.62726538   1.97876005 
C   -0.24157967  -1.50399953   3.34930005 
C   -1.24752663  -0.93966029   4.08812878 
C   -2.31118116  -0.23772590   3.46154687 
C   -2.54079588  -0.05682727   2.10320983 
H   -1.13437424  -0.78824986   5.15784036 
H   -3.19097055  -0.06531471   4.04148354 
H    0.25831480  -2.26535546   1.42531616 
H    0.53359545  -2.06323677   3.85278087 
H   -3.08006152   0.93310239   1.89477176 
C   -1.66752558  -1.26407695  -0.15895111 
H   -2.73681083  -1.45821794  -0.29543211 
H   -1.17449939  -2.22798265  -0.37291158 
O    1.73779562  -1.01935725  -1.08495116 
C    2.26075776  -0.82635479  -2.28619438 
O    1.89462569  -0.00677971  -3.08574699 
C    3.42869314  -1.79254617  -2.56705059 
H    3.16484361  -2.83080851  -2.37916484 
H    4.27980419  -1.53690277  -1.94337985 
H    3.72014002  -1.67844119  -3.61080942 
*
