! EnGrad PBEh-3c
%output 
xyzfile=True 
end 
%scf 
maxiter 250 
end
%output
Print[P_Hirshfeld] = 1
end
% maxcore
4000
*xyz 0 1
Pd   0.71141247   0.60566266  -0.53478180 
O    2.26604793   1.55751783   0.27791237 
C    1.66277116   2.71077190   0.25131602 
O    0.46834266   2.73350279  -0.08099609 
C    2.45081366   3.97198695   0.55219875 
H    1.80329629   4.70161398   1.03574721 
H    2.79058780   4.40306926  -0.39193767 
H    3.32263651   3.78157525   1.17031116 
N   -1.20509364  -0.26175260  -1.18641827 
C   -1.24838661  -0.89530784  -2.51201549 
H   -0.94413873  -0.17004075  -3.25462465 
H   -2.28048193  -1.19876285  -2.72154724 
H   -0.60931169  -1.75940686  -2.57112780 
C   -2.11886182   0.87817140  -1.19727008 
H   -2.09545287   1.42448156  -0.26872935 
H   -3.13848399   0.52935349  -1.39468782 
H   -1.81546583   1.54536885  -1.99790258 
C   -1.45249384  -0.91861900   1.28788535 
C   -0.40595113  -1.60654371   1.97502129 
C   -0.23739724  -1.50017443   3.34427206 
C   -1.21838546  -0.89969157   4.07926021 
C   -2.33058699  -0.32360914   3.44875421 
C   -2.48558639  -0.14495299   2.08485162 
H   -1.11863587  -0.78638707   5.15511452 
H   -3.19186967  -0.14305751   4.05465795 
H    0.30509142  -2.22639779   1.43223155 
H    0.56054831  -2.02829812   3.84703859 
H   -3.36596164   0.90256974   1.84081721 
C   -1.64506771  -1.27221896  -0.16622886 
H   -2.71340342  -1.47090654  -0.29813628 
H   -1.14147440  -2.22193326  -0.39936982 
O    1.72411368  -1.01462401  -1.07252124 
C    2.26538119  -0.85529160  -2.26573207 
O    1.92683983  -0.02538832  -3.07641688 
C    3.40692741  -1.83401574  -2.55499198 
H    3.12663459  -2.86152344  -2.35722296 
H    4.26271697  -1.58957059  -1.93896252 
H    3.71035604  -1.74232707  -3.60090912 
*
