! EnGrad PBEh-3c
%output 
xyzfile=True 
end 
%scf 
maxiter 250 
end
%output
Print[P_Hirshfeld] = 1
end
% maxcore
4000
*xyz 0 1
Pd   0.70865954   0.60555417  -0.53620565 
O    2.26828991   1.56013708   0.27844380 
C    1.66469850   2.71216627   0.25086284 
O    0.47071805   2.73446614  -0.08106761 
C    2.45004329   3.97413848   0.55190742 
H    1.80135972   4.70231807   1.03575570 
H    2.78912407   4.40526061  -0.39213150 
H    3.32154479   3.78416884   1.16970790 
N   -1.20311297  -0.26029988  -1.18462051 
C   -1.24831695  -0.89010864  -2.51173399 
H   -0.94484136  -0.16442059  -3.25477347 
H   -2.28026791  -1.19429620  -2.72286449 
H   -0.61042596  -1.75377424  -2.57409880 
C   -2.11724835   0.87929024  -1.19478527 
H   -2.09263188   1.42510078  -0.26708538 
H   -3.13776783   0.53201304  -1.39177660 
H   -1.81551577   1.54981734  -1.99364312 
C   -1.44932311  -0.92138793   1.28570018 
C   -0.40159317  -1.60438089   1.97463105 
C   -0.23696070  -1.49977519   3.34374727 
C   -1.21534386  -0.89551985   4.07833456 
C   -2.33261247  -0.33257317   3.44741898 
C   -2.47982392  -0.15415108   2.08293549 
H   -1.11699318  -0.78619264   5.15483001 
H   -3.19196352  -0.15117189   4.05603303 
H    0.30997372  -2.22233159   1.43295334 
H    0.56336150  -2.02465141   3.84643925 
H   -3.39580236   0.89938290   1.83518573 
C   -1.64272368  -1.27306878  -0.16698847 
H   -2.71096028  -1.47223091  -0.29841852 
H   -1.13802743  -2.22130186  -0.40213139 
O    1.72268563  -1.01412998  -1.07122387 
C    2.26586376  -0.85831187  -2.26359633 
O    1.93020217  -0.02733058  -3.07544306 
C    3.40465562  -1.83834411  -2.55373337 
H    3.12264654  -2.86472930  -2.35493278 
H    4.26093349  -1.59506778  -1.93850146 
H    3.70933484  -1.74899514  -3.59987578 
*
