! EnGrad PBEh-3c
%output 
xyzfile=True 
end 
%scf 
maxiter 250 
end
%output
Print[P_Hirshfeld] = 1
end
% maxcore
4000
*xyz 0 1
Pd   0.76039650   0.59448650  -0.50596672 
O    2.20607762   1.50584004   0.26911189 
C    1.62193883   2.66902896   0.26425491 
O    0.41423498   2.70608744  -0.07581518 
C    2.46838627   3.90946201   0.55931479 
H    1.85782194   4.68124184   1.03524126 
H    2.83103471   4.34042630  -0.38566147 
H    3.34969653   3.70835040   1.18494694 
N   -1.24700207  -0.30792803  -1.21553225 
C   -1.25196980  -1.03352035  -2.51001844 
H   -0.92360219  -0.32576147  -3.25486177 
H   -2.28700286  -1.32552372  -2.68941530 
H   -0.58227027  -1.91061834  -2.48743048 
C   -2.15985759   0.84000772  -1.26807331 
H   -2.17001813   1.40592709  -0.32075214 
H   -3.16095063   0.45783961  -1.47642144 
H   -1.81564507   1.42900225  -2.11353605 
C   -1.54288434  -0.84020540   1.34753178 
C   -0.52972130  -1.65447857   1.98069873 
C   -0.26794196  -1.52417616   3.35909863 
C   -1.29605103  -0.98540635   4.10088424 
C   -2.28273856  -0.10221861   3.48370191 
C   -2.57412398   0.10226750   2.12621001 
H   -1.16402852  -0.79620314   5.16414965 
H   -3.18255999   0.09203943   4.03081832 
H    0.16198498  -2.33387958   1.41672623 
H    0.48373429  -2.12887419   3.86453013 
H   -2.58579871   0.97812341   1.98265869 
C   -1.71008329  -1.24849841  -0.14196058 
H   -2.78227559  -1.43353518  -0.28894294 
H   -1.23842551  -2.23612058  -0.32301874 
O    1.76492475  -1.01924213  -1.11197764 
C    2.25707188  -0.78925975  -2.30848657 
O    1.83413987   0.03168766  -3.10846129 
C    3.46283207  -1.70708707  -2.59376593 
H    3.23598766  -2.76923251  -2.42167233 
H    4.31076191  -1.43732743  -1.95232837 
H    3.74158434  -1.55932363  -3.63090819 
*
