! EnGrad PBEh-3c
%output 
xyzfile=True 
end 
%scf 
maxiter 250 
end
%output
Print[P_Hirshfeld] = 1
end
% maxcore
4000
*xyz 0 1
Pd   0.72529304   0.60199590  -0.52648379 
O    2.24828857   1.54268051   0.27544358 
C    1.65095121   2.69829757   0.25516841 
O    0.45255867   2.72534235  -0.07937895 
C    2.45594058   3.95334491   0.55428890 
H    1.81951239   4.69554204   1.03559031 
H    2.80259840   4.38441630  -0.39005138 
H    3.33059561   3.75979311   1.17460727 
N   -1.21722337  -0.27561239  -1.19455868 
C   -1.24949134  -0.93621569  -2.51118244 
H   -0.93801294  -0.21629189  -3.25480186 
H   -2.28243321  -1.23648602  -2.71211053 
H   -0.60137387  -1.80419982  -2.54623482 
C   -2.13094728   0.86666086  -1.21834747 
H   -2.11751166   1.41893641  -0.28433931 
H   -3.14522113   0.50816618  -1.41899002 
H   -1.81555734   1.51097513  -2.03218885 
C   -1.47940317  -0.89528764   1.30557912 
C   -0.44278653  -1.62048736   1.97658182 
C   -0.24692122  -1.50762013   3.34868275 
C   -1.24129132  -0.92441848   4.08558431 
C   -2.31657794  -0.25851388   3.45908399 
C   -2.51014151  -0.07171217   2.09684830 
H   -1.13211511  -0.78941103   5.15782628 
H   -3.18894027  -0.07297913   4.04792647 
H    0.26239515  -2.25819442   1.42773630 
H    0.53776125  -2.05815917   3.85225549 
H   -3.13538513   0.92469808   1.88259848 
C   -1.66437988  -1.26516937  -0.15894197 
H   -2.73388824  -1.45979018  -0.29537211 
H   -1.17030555  -2.22606610  -0.37669657 
O    1.73626556  -1.01577354  -1.08432626 
C    2.26303716  -0.83611152  -2.27802860 
O    1.89931801  -0.00835614  -3.08605846 
C    3.42335942  -1.79614480  -2.56660389 
H    3.15908586  -2.83402695  -2.37638963 
H    4.27695339  -1.54435405  -1.94294683 
H    3.71970310  -1.68801550  -3.60985274 
*
