! EnGrad PBEh-3c
%output 
xyzfile=True 
end 
%scf 
maxiter 250 
end
%output
Print[P_Hirshfeld] = 1
end
% maxcore
4000
*xyz -1 1
Pt  -1.07927768  -0.93712172   0.56793138 
Cl  -0.27543124  -0.65496792   2.73180817 
Cl  -2.70664417  -2.33248163   1.16714569 
Cl  -1.69963428  -1.03434420  -1.66643978 
C    1.14259409   0.96057548  -0.52272219 
H    1.45421055   1.93498068  -0.13729451 
H    1.24137002   0.17499937   0.25557143 
H    1.77961853   0.69272892  -1.36066440 
H    0.14041345   1.19609585  -1.03579984 
*
