! EnGrad PBEh-3c
%output 
xyzfile=True 
end 
%scf 
maxiter 250 
end
%output
Print[P_Hirshfeld] = 1
end
% maxcore
4000
*xyz -1 1
Pt  -1.07606841  -0.93339276   0.56110081 
Cl  -0.27311474  -0.64031067   2.70634954 
Cl  -2.70833181  -2.32072989   1.17610176 
Cl  -1.67562993  -1.03588005  -1.66315032 
C    1.14413333   0.99029124  -0.55551785 
H    1.47729090   1.91166495  -0.09585800 
H    1.17662941   0.20445337   0.19463813 
H    1.78763617   0.69099152  -1.37143669 
H    0.13785792   1.13430119  -0.95334966 
*
