! EnGrad PBEh-3c
%output 
xyzfile=True 
end 
%scf 
maxiter 250 
end
%output
Print[P_Hirshfeld] = 1
end
% maxcore
4000
*xyz 1 1
Ir   0.51500583  -0.78202769   0.61655596 
C    0.01205425  -2.87419217   1.12569080 
C    0.20341329  -2.15211019   2.35742982 
C    2.15155768  -2.05280296   1.10320043 
C    1.20476585  -2.81379848   0.36239578 
C    1.53326105  -1.71963254   2.35298053 
N   -1.09114505  -0.11505854  -0.49340114 
C   -2.47553671  -0.11887627   0.00875598 
C   -2.81845432   1.13797188   0.79282830 
H   -3.83853971   1.11890173   1.17764463 
H   -2.72058771   2.01471708   0.15630627 
H   -2.18913648   1.23279323   1.67285787 
C   -3.56397069  -0.39048230  -1.02051839 
H   -2.53255066  -0.93932661   0.72661160 
H   -4.52315154  -0.54927467  -0.53059085 
H   -3.70319236   0.44502433  -1.70762462 
H   -3.34788921  -1.28977789  -1.59735003 
C   -0.86261510   0.21486160  -1.71059718 
C    0.43506708   0.21006509  -2.29860154 
H   -1.67481913   0.50908232  -2.36761711 
C    1.55329724  -0.15687032  -1.59977783 
C    2.71073528  -0.19226576  -2.40933678 
S    0.77959097   0.30417213  -3.97190762 
C    2.43256084   0.04322692  -3.72792303 
H    2.24527125   1.26878813  -0.82283106 
H    3.73439778  -0.34839196  -2.09814154 
H    3.11384183  -0.00978310  -4.56377706 
H   -0.75982163  -3.61563655   0.97769285 
H   -0.47771187  -2.11720225   3.19248238 
H    2.05418536  -1.28940382   3.19406936 
O    2.04935163   2.09977500   0.28455710 
O    0.42371900   1.18780200   1.40231210 
C    1.09284148   2.18465303   1.12721243 
C    0.95483734   3.47677842   1.84093319 
H    0.89336442   4.29200780   1.12070902 
H    1.82586613   3.67972722   2.46562716 
H    0.07399902   3.49143192   2.47497362 
H    3.20658672  -1.97172034   0.90412752 
H    1.37954582  -3.41312042  -0.51795517 
*
