! EnGrad PBEh-3c
%output 
xyzfile=True 
end 
%scf 
maxiter 250 
end
%output
Print[P_Hirshfeld] = 1
end
% maxcore
4000
*xyz 1 1
Ir   0.55976369  -0.76655186   0.58003704 
C    0.01985216  -2.88075581   1.15349962 
C    0.18923873  -2.16548998   2.34075818 
C    2.15577213  -2.06749997   1.14045040 
C    1.17873863  -2.82703841   0.36182583 
C    1.58349153  -1.71476976   2.33157903 
N   -1.09757695  -0.12108639  -0.50349853 
C   -2.49971711  -0.12535994   0.02948328 
C   -2.81141398   1.14951018   0.79292589 
H   -3.84247012   1.11886783   1.16233670 
H   -2.72147385   2.02312786   0.14856940 
H   -2.18687867   1.24980969   1.66427047 
C   -3.55158151  -0.39532872  -1.03330112 
H   -2.52479181  -0.93660391   0.72776595 
H   -4.51805236  -0.55101454  -0.52647946 
H   -3.70339194   0.43762334  -1.71318343 
H   -3.34437167  -1.29511891  -1.59629367 
C   -0.87506405   0.22698627  -1.72884209 
C    0.44342054   0.19055850  -2.30447196 
H   -1.67940237   0.50999131  -2.36228744 
C    1.55589139  -0.13169945  -1.50733018 
C    2.72586792  -0.19252936  -2.40913105 
S    0.76684443   0.31433322  -3.99077507 
C    2.42077598   0.03601770  -3.73618311 
H    2.18816176   1.28876737  -0.72800783 
H    3.73426847  -0.34741523  -2.09513722 
H    3.11190203  -0.00687864  -4.56830991 
H   -0.77939513  -3.59610483   0.97762234 
H   -0.46755132  -2.11041876   3.20022039 
H    2.06737511  -1.27837400   3.18198113 
O    2.08139174   2.09754758   0.21078380 
O    0.37172054   1.15744704   1.43042290 
C    1.15308207   2.14188477   1.08886557 
C    0.94159273   3.48818927   1.85061574 
H    0.89224577   4.28979211   1.12512112 
H    1.82406191   3.67371925   2.46881905 
H    0.06889299   3.49144310   2.47949892 
H    3.20423712  -1.97042531   0.88323999 
H    1.36390000  -3.40566477  -0.52605117 
*
