! EnGrad PBEh-3c
%output 
xyzfile=True 
end 
%scf 
maxiter 250 
end
%output
Print[P_Hirshfeld] = 1
end
% maxcore
4000
*xyz 1 1
Ir   0.56558086  -0.76408145   0.57285755 
C    0.01497061  -2.88915025   1.15525478 
C    0.20018851  -2.15925601   2.34458576 
C    2.16324470  -2.07905312   1.12942572 
C    1.17945845  -2.82460433   0.36486304 
C    1.57631031  -1.71479990   2.33627619 
N   -1.09742552  -0.12148618  -0.50860094 
C   -2.49808810  -0.12188290   0.02703453 
C   -2.81414337   1.15182856   0.79069598 
H   -3.84254354   1.12036196   1.15783518 
H   -2.72167973   2.02506916   0.14538842 
H   -2.18559518   1.25560559   1.66307534 
C   -3.55341648  -0.39693371  -1.03081787 
H   -2.52361802  -0.93866637   0.73180453 
H   -4.51457293  -0.55161181  -0.52760921 
H   -3.70278081   0.43575055  -1.71558976 
H   -3.34220327  -1.29852396  -1.59649401 
C   -0.87168562   0.22552290  -1.72604726 
C    0.44663956   0.18655476  -2.29796192 
H   -1.68442088   0.51222031  -2.36459346 
C    1.55599317  -0.12571682  -1.50542523 
C    2.71677446  -0.19064295  -2.40533486 
S    0.76528982   0.31483996  -3.98997149 
C    2.42045650   0.03341230  -3.73272626 
H    2.17480158   1.29679006  -0.70142921 
H    3.73831984  -0.34677712  -2.09483937 
H    3.11062430  -0.00651571  -4.56942414 
H   -0.78418852  -3.58940010   0.97969686 
H   -0.46329481  -2.10840636   3.20159697 
H    2.07406145  -1.27490187   3.17886524 
O    2.08258890   2.09072773   0.19702850 
O    0.38303807   1.16872720   1.42472546 
C    1.14380988   2.12846634   1.09458418 
C    0.94747667   3.47947914   1.84625825 
H    0.89151798   4.29040112   1.12574297 
H    1.82246364   3.67285647   2.47046437 
H    0.06530759   3.48994937   2.48158781 
H    3.20190481  -1.97174099   0.87724904 
H    1.35792784  -3.40497708  -0.52835741 
*
