! EnGrad PBEh-3c
%output 
xyzfile=True 
end 
%scf 
maxiter 250 
end
%output
Print[P_Hirshfeld] = 1
end
% maxcore
4000
*xyz 1 1
Ir   0.57462459  -0.76175590   0.56332797 
C    0.01299910  -2.89512405   1.16092277 
C    0.20978208  -2.15458818   2.34783722 
C    2.16732875  -2.09145289   1.12288866 
C    1.17821037  -2.82436219   0.36625665 
C    1.57483901  -1.71526155   2.33600991 
N   -1.09769981  -0.12252391  -0.51224657 
C   -2.49675803  -0.11940305   0.02582116 
C   -2.81603189   1.15559880   0.78766584 
H   -3.84340615   1.12249499   1.15159077 
H   -2.72216602   2.02787123   0.14076230 
H   -2.18455112   1.26383199   1.66055005 
C   -3.55393798  -0.39919615  -1.02961713 
H   -2.52174335  -0.93955247   0.73596760 
H   -4.51096380  -0.55270934  -0.52834456 
H   -3.70198158   0.43247370  -1.71863102 
H   -3.33935164  -1.30264305  -1.59608477 
C   -0.86960864   0.22526124  -1.72697060 
C    0.44989674   0.18170298  -2.29126878 
H   -1.68885163   0.51453903  -2.36613564 
C    1.55529175  -0.11910057  -1.50034896 
C    2.71047994  -0.18879492  -2.39955838 
S    0.76305029   0.31549929  -3.98869119 
C    2.41901499   0.03019361  -3.72956027 
H    2.15654326   1.30953005  -0.66326580 
H    3.74083964  -0.34528970  -2.09513808 
H    3.10858109  -0.00612950  -4.57032195 
H   -0.79272343  -3.58166857   0.98257038 
H   -0.45657549  -2.10522521   3.20361727 
H    2.08317060  -1.27034823   3.17410188 
O    2.08197364   2.08114681   0.18012917 
O    0.39130055   1.17544166   1.42022885 
C    1.14125194   2.11742722   1.09579259 
C    0.95183925   3.46961817   1.84243297 
H    0.89078364   4.29002591   1.12703182 
H    1.82064728   3.67125649   2.47279098 
H    0.06257943   3.48782763   2.48299318 
H    3.20099414  -1.97383339   0.86774476 
H    1.34909965  -3.40341273  -0.53083077 
*
