! EnGrad PBEh-3c
%output 
xyzfile=True 
end 
%scf 
maxiter 250 
end
%output
Print[P_Hirshfeld] = 1
end
% maxcore
4000
*xyz 1 1
Ir   0.62300793  -0.76221092   0.51374775 
C    0.01124860  -2.91122678   1.19910819 
C    0.24970375  -2.14161092   2.36452333 
C    2.18411670  -2.15142912   1.09751203 
C    1.16352312  -2.83592063   0.36398936 
C    1.59946610  -1.71333360   2.31875750 
N   -1.09390710  -0.12804516  -0.52733085 
C   -2.48054172  -0.11453392   0.02219026 
C   -2.81847448   1.17836216   0.76606757 
H   -3.85150600   1.13796762   1.11314364 
H   -2.72603070   2.04543553   0.10963976 
H   -2.18228458   1.31803868   1.63985508 
C   -3.54653543  -0.41417817  -1.02959659 
H   -2.50942827  -0.93397742   0.75518596 
H   -4.49701125  -0.56211480  -0.52924664 
H   -3.69630237   0.40751414  -1.73590920 
H   -3.32165194  -1.32531101  -1.58954785 
C   -0.87049505   0.22166463  -1.73693608 
C    0.44872403   0.16632672  -2.26648265 
H   -1.70424827   0.52770980  -2.37338509 
C    1.54274642  -0.11093988  -1.48579624 
C    2.69198798  -0.17748719  -2.36157893 
S    0.75483876   0.31467670  -3.96378228 
C    2.40846598   0.01254647  -3.70120199 
H    2.04911400   1.34710341  -0.46713680 
H    3.73971113  -0.33360750  -2.09631432 
H    3.08934072  -0.00530107  -4.56202861 
H   -0.85223649  -3.53020102   1.00292541 
H   -0.41023483  -2.07961093   3.21571594 
H    2.13799200  -1.24234080   3.13394254 
O    2.05050402   2.09199266   0.17088328 
O    0.43531697   1.17532514   1.38785721 
C    1.14782707   2.10362278   1.08063581 
C    0.97094855   3.41980341   1.82254547 
H    0.88987397   4.27349048   1.13838766 
H    1.81009761   3.65603779   2.48387900 
H    0.06651680   3.46224390   2.47275800 
H    3.20133514  -1.99289589   0.80357461 
H    1.29125386  -3.39451616  -0.54667966 
*
