! EnGrad PBEh-3c
%output 
xyzfile=True 
end 
%scf 
maxiter 250 
end
%output
Print[P_Hirshfeld] = 1
end
% maxcore
4000
*xyz 1 1
Ir   0.64593763  -0.76619250   0.49310244 
C    0.01082133  -2.91461245   1.21593740 
C    0.26413849  -2.14199842   2.36652235 
C    2.19287364  -2.17324199   1.09230724 
C    1.15148976  -2.84654976   0.36259776 
C    1.62560684  -1.71121071   2.30283750 
N   -1.09043038  -0.13256985  -0.53159761 
C   -2.47440486  -0.11523181   0.02393269 
C   -2.81548424   1.18852521   0.75505120 
H   -3.85459551   1.14538580   1.09374587 
H   -2.72784740   2.05395317   0.09384718 
H   -2.18220998   1.34575047   1.62754670 
C   -3.53816835  -0.42205360  -1.03178222 
H   -2.50200702  -0.92755930   0.76143880 
H   -4.49200872  -0.56747190  -0.52830702 
H   -3.69321206   0.39382897  -1.74358635 
H   -3.31328429  -1.33535888  -1.58557050 
C   -0.87967531   0.22097166  -1.74405179 
C    0.44076528   0.16326455  -2.26498573 
H   -1.70785690   0.53350157  -2.37591730 
C    1.53514296  -0.11629860  -1.46884411 
C    2.68957532  -0.17337981  -2.34632203 
S    0.75189321   0.31358345  -3.94924152 
C    2.40221570   0.00578501  -3.68548694 
H    1.99654473   1.33353309  -0.39687616 
H    3.73449383  -0.32844975  -2.09224864 
H    3.07685355  -0.00515782  -4.54992625 
H   -0.88099767  -3.49832757   1.01295518 
H   -0.38849737  -2.06374102   3.22306434 
H    2.16350390  -1.22652444   3.10980008 
O    2.04666145   2.13574252   0.18465446 
O    0.44469027   1.15134904   1.37266268 
C    1.15059390   2.11895730   1.08359674 
C    0.97279590   3.40822747   1.82045204 
H    0.89138745   4.26044680   1.14365830 
H    1.80615283   3.64471943   2.48643576 
H    0.07589162   3.44337294   2.46025196 
H    3.20279418  -2.00425911   0.77066276 
H    1.26324854  -3.39179341  -0.55748528 
*
