! EnGrad PBEh-3c
%output 
xyzfile=True 
end 
%scf 
maxiter 250 
end
%output
Print[P_Hirshfeld] = 1
end
% maxcore
4000
*xyz 1 1
Ir   0.65904496  -0.77660854   0.48637838 
C    0.00988901  -2.90932311   1.22777955 
C    0.28175633  -2.14377743   2.36911530 
C    2.19636525  -2.18843525   1.08137086 
C    1.13978526  -2.86065191   0.35961929 
C    1.65480675  -1.71155002   2.28105084 
N   -1.08547211  -0.13792853  -0.53052263 
C   -2.46601953  -0.11530480   0.02507755 
C   -2.81159045   1.19812707   0.74057087 
H   -3.85511199   1.15467702   1.07318937 
H   -2.72992570   2.06102252   0.07477789 
H   -2.18452995   1.37544330   1.61227436 
C   -3.52886555  -0.43086810  -1.03191506 
H   -2.49393079  -0.91625387   0.76631921 
H   -4.48665236  -0.57418955  -0.52774102 
H   -3.68859514   0.37732045  -1.75048995 
H   -3.30387814  -1.34607927  -1.57962813 
C   -0.89021797   0.21958004  -1.74895507 
C    0.43111706   0.16570503  -2.26460095 
H   -1.70868871   0.53922847  -2.37865176 
C    1.52443190  -0.12694350  -1.46274917 
C    2.68908966  -0.17157629  -2.33201788 
S    0.75120297   0.30923480  -3.93368840 
C    2.39580833   0.00323974  -3.66974779 
H    1.95582158   1.31702067  -0.33986422 
H    3.72724241  -0.32214522  -2.08380642 
H    3.06210775  -0.00653796  -4.53045022 
H   -0.90806803  -3.46215448   1.02814721 
H   -0.36298307  -2.04369341   3.23175347 
H    2.19169703  -1.21077094   3.07967345 
O    2.04849404   2.16892839   0.18817621 
O    0.46014692   1.13048475   1.35322054 
C    1.13221610   2.14275708   1.11233549 
C    0.96423028   3.40973752   1.83331071 
H    0.89440079   4.24520203   1.14695161 
H    1.80412550   3.62982683   2.48853678 
H    0.08654649   3.42016827   2.44587802 
H    3.20591473  -2.02148895   0.73391811 
H    1.23215181  -3.39280211  -0.56908013 
*
