! EnGrad PBEh-3c
%output 
xyzfile=True 
end 
%scf 
maxiter 250 
end
%output
Print[P_Hirshfeld] = 1
end
% maxcore
4000
*xyz 1 1
Ir   0.66642815  -0.79039094   0.48485401 
C    0.00540216  -2.90062733   1.23566674 
C    0.30337595  -2.14348869   2.37373121 
C    2.20289686  -2.20239509   1.05931472 
C    1.12844084  -2.87465957   0.35640110 
C    1.68096579  -1.71226327   2.26222837 
N   -1.08154336  -0.14295767  -0.53049383 
C   -2.45873302  -0.11309369   0.02575112 
C   -2.80824925   1.20795967   0.72391255 
H   -3.85302770   1.16492655   1.05172720 
H   -2.73188490   2.06678019   0.05281503 
H   -2.18798564   1.40594727   1.59536943 
C   -3.51999026  -0.44046440  -1.03012670 
H   -2.48557124  -0.90340553   0.77205200 
H   -4.47974941  -0.58173682  -0.52759778 
H   -3.68273416   0.35924932  -1.75676608 
H   -3.29357544  -1.35776178  -1.57240026 
C   -0.89606673   0.21705240  -1.74746906 
C    0.42234522   0.16868411  -2.26131001 
H   -1.71047648   0.54508290  -2.38170945 
C    1.51316414  -0.13849341  -1.45843647 
C    2.68385515  -0.17137865  -2.31937937 
S    0.75003147   0.30463638  -3.92484136 
C    2.38847099   0.00332828  -3.65262399 
H    1.92545110   1.31284454  -0.28431647 
H    3.72252690  -0.31586708  -2.07060109 
H    3.04918703  -0.00878052  -4.50998387 
H   -0.93183692  -3.42265071   1.04689308 
H   -0.33400585  -2.02119702   3.24049426 
H    2.22197675  -1.19585153   3.04454552 
O    2.03203409   2.18164639   0.19706724 
O    0.47037256   1.11921872   1.34338287 
C    1.13402757   2.15356244   1.11787719 
C    0.95590613   3.41956645   1.85203110 
H    0.89722753   4.23246637   1.14809051 
H    1.80451725   3.61413088   2.49308281 
H    0.08373013   3.39850983   2.44244484 
H    3.20638497  -2.04301394   0.69574947 
H    1.19927923  -3.39683715  -0.58122075 
*
