! EnGrad PBEh-3c
%output 
xyzfile=True 
end 
%scf 
maxiter 250 
end
%output
Print[P_Hirshfeld] = 1
end
% maxcore
4000
*xyz 1 1
Ir   0.66930479  -0.81318134   0.48871274 
C   -0.00355108  -2.87932463   1.24618064 
C    0.34797170  -2.13657756   2.38475003 
C    2.20805688  -2.22618006   1.00995617 
C    1.11027949  -2.89703958   0.34843421 
C    1.71816948  -1.71842911   2.22872995 
N   -1.07909677  -0.15278418  -0.52391596 
C   -2.44799847  -0.10466075   0.02370839 
C   -2.80395037   1.22665269   0.69245525 
H   -3.84689335   1.18406990   1.01416499 
H   -2.73480774   2.07456388   0.00911626 
H   -2.19513307   1.45854147   1.56394731 
C   -3.50641177  -0.45814225  -1.02439288 
H   -2.47176536  -0.88069605   0.78597965 
H   -4.46601703  -0.59613682  -0.52752153 
H   -3.67058391   0.32643875  -1.76651920 
H   -3.27405706  -1.37992117  -1.55735641 
C   -0.90164227   0.21584611  -1.74422354 
C    0.41272491   0.17270855  -2.25284661 
H   -1.71120329   0.55327384  -2.38299868 
C    1.49579125  -0.15597807  -1.45230841 
C    2.67091477  -0.17305774  -2.29637972 
S    0.74400775   0.29695927  -3.91926237 
C    2.37631492   0.00635893  -3.62570322 
H    1.89112731   1.30343354  -0.21226828 
H    3.71612140  -0.30458003  -2.04266324 
H    3.03323482  -0.01394280  -4.47779479 
H   -0.96832822  -3.35295502   1.08432398 
H   -0.27802415  -1.97974500   3.25569230 
H    2.27955319  -1.17206335   2.97980201 
O    2.00926533   2.18973084   0.20431425 
O    0.48321620   1.12068959   1.34310771 
C    1.12262461   2.15743964   1.13778404 
C    0.95508210   3.42035224   1.86917368 
H    0.89949794   4.22193060   1.14823664 
H    1.81017734   3.59108977   2.51078074 
H    0.05069973   3.36668200   2.45980722 
H    3.20656295  -2.08534777   0.62553708 
H    1.13950619  -3.40829622  -0.60061970 
*
