! EnGrad PBEh-3c
%output 
xyzfile=True 
end 
%scf 
maxiter 250 
end
%output
Print[P_Hirshfeld] = 1
end
% maxcore
4000
*xyz -1 1
Pd  -2.23188911  -1.66693225   0.80409005 
Cl  -3.66570032  -3.23568604  -0.10077292 
Cl  -0.95557632  -4.37310290   1.60988238 
Cl  -3.86267655  -0.06255419   0.45073571 
N   -0.91711586  -0.15888904   1.43779691 
C   -1.23471551   0.37716491   2.60021487 
C   -0.74784262   1.61484079   3.02847388 
C    0.08373040   2.30474808   2.18334581 
C   -0.06945592   0.46843399   0.59460556 
C    0.43832244   1.73705353   0.95069808 
H    0.46908199   3.27491770   2.47357222 
H   -1.93178068  -0.17227686   3.22064603 
H   -1.03830336   2.00657404   3.99226866 
C    0.35521008  -0.19602202  -0.61027022 
C    1.29739498   2.42449565   0.03717821 
C    1.63197409   1.85646259  -1.14168967 
C    1.19342606   0.53626978  -1.48217278 
H    1.66437803   3.41034039   0.29737320 
H    2.27187427   2.39845985  -1.83103589 
C    0.00428747  -1.52518796  -0.92743128 
C    1.63555939  -0.05471637  -2.67528000 
C    0.44766389  -2.05594706  -2.12505487 
C    1.28313796  -1.34180877  -2.98568595 
H    2.27057409   0.49983654  -3.36137214 
H    1.63998502  -1.78698315  -3.90884566 
H   -0.22570630  -3.21230181  -0.11146628 
H    0.19415605  -3.06718943  -2.41981021 
*
