! EnGrad PBEh-3c
%output 
xyzfile=True 
end 
%scf 
maxiter 250 
end
%output
Print[P_Hirshfeld] = 1
end
% maxcore
4000
*xyz -1 1
Pd  -2.23139527  -1.71150622   0.76039179 
Cl  -3.63985344  -3.21838786  -0.09702946 
Cl  -0.91326306  -4.34131502   1.54726707 
Cl  -3.86109723  -0.08311834   0.49197751 
N   -0.94436335  -0.16346819   1.44256483 
C   -1.23884165   0.39581368   2.60313936 
C   -0.74654105   1.61379202   3.02026879 
C    0.07847204   2.30035734   2.18408485 
C   -0.06504370   0.45996019   0.61865876 
C    0.44656484   1.75324776   0.94418246 
H    0.47271507   3.28007429   2.46747575 
H   -1.93290901  -0.16454759   3.21680315 
H   -1.04325261   2.01536661   3.98926255 
C    0.34876080  -0.19619549  -0.59863320 
C    1.29992064   2.42177069   0.03559746 
C    1.63470048   1.85806209  -1.13181275 
C    1.20178034   0.54436650  -1.49720838 
H    1.67059563   3.40973888   0.30030837 
H    2.27841698   2.39024467  -1.82900377 
C   -0.00000247  -1.64821087  -0.90051912 
C    1.64731122  -0.05175498  -2.67993305 
C    0.44642566  -2.04913944  -2.13520774 
C    1.26871903  -1.33000519  -2.99557171 
H    2.27474073   0.49921435  -3.34964323 
H    1.63483907  -1.78860472  -3.90385930 
H   -0.26279067  -3.13646177  -0.08723357 
H    0.17491449  -3.05929162  -2.41524677 
*
