! EnGrad PBEh-3c
%output 
xyzfile=True 
end 
%scf 
maxiter 250 
end
%output
Print[P_Hirshfeld] = 1
end
% maxcore
4000
*xyz -1 1
Pd  -2.22337507  -1.73466311   0.73199900 
Cl  -3.62372079  -3.21357070  -0.10053874 
Cl  -0.87473118  -4.31313589   1.48892257 
Cl  -3.86118971  -0.10494659   0.53180259 
N   -0.95610829  -0.16090513   1.44560809 
C   -1.25289337   0.39162773   2.59919016 
C   -0.74854348   1.62403269   3.02850570 
C    0.08628968   2.31228087   2.17626159 
C   -0.06152033   0.45549351   0.62444603 
C    0.44170211   1.74968193   0.94966798 
H    0.47281803   3.28003097   2.46226050 
H   -1.93510262  -0.15461327   3.21479291 
H   -1.04590037   2.02153457   3.98096118 
C    0.34411811  -0.23291988  -0.59689543 
C    1.30421883   2.43148534   0.04295716 
C    1.64271196   1.85336070  -1.13999580 
C    1.19103748   0.53902802  -1.48456058 
H    1.67622707   3.40702703   0.30190912 
H    2.28444606   2.38352597  -1.82480302 
C    0.00868832  -1.69254981  -0.86568359 
C    1.65046869  -0.05767092  -2.68322119 
C    0.43490856  -2.06574219  -2.13869967 
C    1.26062687  -1.31205100  -3.00260597 
H    2.28577178   0.50265468  -3.34612721 
H    1.62903576  -1.79023742  -3.90180226 
H   -0.29120049  -3.06552832  -0.07302723 
H    0.16046398  -3.05308174  -2.41814785 
*
