! EnGrad PBEh-3c
%output 
xyzfile=True 
end 
%scf 
maxiter 250 
end
%output
Print[P_Hirshfeld] = 1
end
% maxcore
4000
*xyz -1 1
Pd  -2.20456653  -1.72597407   0.72390912 
Cl  -3.62046347  -3.22628474  -0.11455093 
Cl  -0.84065942  -4.29059283   1.43493339 
Cl  -3.86494969  -0.12754038   0.57021631 
N   -0.94980081  -0.15734761   1.43926716 
C   -1.25814041   0.39919799   2.59606560 
C   -0.74803628   1.62855268   3.01995008 
C    0.08232719   2.31440104   2.17986157 
C   -0.06458927   0.44501176   0.61354356 
C    0.44104429   1.73922130   0.94768825 
H    0.47494467   3.28578554   2.45891672 
H   -1.94695203  -0.14982384   3.21916596 
H   -1.04965525   2.03021172   3.97996563 
C    0.34701948  -0.26549339  -0.58558886 
C    1.30675093   2.42443127   0.03884427 
C    1.63794723   1.84604545  -1.13007355 
C    1.17843904   0.51471983  -1.47130313 
H    1.68371072   3.41028731   0.30519584 
H    2.29320627   2.37867115  -1.82471596 
C    0.02549316  -1.67328553  -0.85635969 
C    1.64479003  -0.05061406  -2.67185690 
C    0.42585896  -2.06694191  -2.12197731 
C    1.24417670  -1.32299356  -2.99826150 
H    2.29756828   0.50519681  -3.34467657 
H    1.62166330  -1.78950110  -3.90269741 
H   -0.30457422  -3.01187878  -0.06642105 
H    0.14687883  -3.06313316  -2.43208790 
*
