! EnGrad PBEh-3c
%output 
xyzfile=True 
end 
%scf 
maxiter 250 
end
%output
Print[P_Hirshfeld] = 1
end
% maxcore
4000
*xyz -1 1
Pd  -2.18423503  -1.72343977   0.70413115 
Cl  -3.60929659  -3.23599923  -0.13001110 
Cl  -0.79049354  -4.25548135   1.35550453 
Cl  -3.87016414  -0.15669861   0.62382142 
N   -0.95315195  -0.15613513   1.43821232 
C   -1.26449828   0.40892889   2.59158104 
C   -0.75435071   1.63115805   3.01718800 
C    0.08219107   2.31397445   2.17277882 
C   -0.06476245   0.43580622   0.61311373 
C    0.44234825   1.73349863   0.94500972 
H    0.47755067   3.29205032   2.45329235 
H   -1.95883534  -0.14058819   3.22005871 
H   -1.05388125   2.04018196   3.97491865 
C    0.35374141  -0.28368919  -0.57106528 
C    1.30850762   2.42095031   0.04297198 
C    1.63587309   1.83204430  -1.12662806 
C    1.17526837   0.49997809  -1.46253069 
H    1.69131029   3.40831976   0.30800852 
H    2.29923663   2.36625356  -1.82003877 
C    0.03348561  -1.68456942  -0.83967457 
C    1.63873217  -0.05441530  -2.66650233 
C    0.41891742  -2.07325573  -2.11680431 
C    1.22693228  -1.32487504  -2.99041254 
H    2.30610686   0.50460282  -3.33426036 
H    1.60956796  -1.78907002  -3.90124221 
H   -0.32499287  -2.94319235  -0.04769372 
H    0.12833264  -3.06591271  -2.44196904 
*
