! EnGrad PBEh-3c
%output 
xyzfile=True 
end 
%scf 
maxiter 250 
end
%output
Print[P_Hirshfeld] = 1
end
% maxcore
4000
*xyz -1 1
Pd  -2.16149245  -1.71435956   0.67936084 
Cl  -3.59603389  -3.24687858  -0.14983567 
Cl  -0.72551978  -4.20156384   1.24948117 
Cl  -3.87666470  -0.18941930   0.68803967 
N   -0.95647313  -0.15658771   1.43643295 
C   -1.27581802   0.41516865   2.59031495 
C   -0.75805383   1.63633883   3.00786629 
C    0.07837595   2.31002218   2.16891936 
C   -0.06334984   0.42684094   0.61716991 
C    0.44473279   1.72704112   0.94182977 
H    0.47913245   3.29490612   2.44392314 
H   -1.97229691  -0.12817347   3.21758397 
H   -1.05900057   2.05063076   3.96989923 
C    0.36658656  -0.29482692  -0.55543311 
C    1.31141199   2.40981319   0.04028299 
C    1.63206452   1.81862564  -1.11611543 
C    1.17792974   0.48508586  -1.45469010 
H    1.69807982   3.40294425   0.31092206 
H    2.30161115   2.34658337  -1.81320111 
C    0.03829899  -1.69434237  -0.82709451 
C    1.63067540  -0.05888489  -2.65972266 
C    0.40987358  -2.08157072  -2.10472887 
C    1.21153829  -1.33345009  -2.98569170 
H    2.30948778   0.49944561  -3.31607215 
H    1.59023573  -1.78648225  -3.89556656 
H   -0.34461198  -2.86658712  -0.01482478 
H    0.10803368  -3.06975806  -2.45128277 
*
