! EnGrad PBEh-3c
%output 
xyzfile=True 
end 
%scf 
maxiter 250 
end
%output
Print[P_Hirshfeld] = 1
end
% maxcore
4000
*xyz -1 1
Pd  -2.14217336  -1.70215641   0.64829261 
Cl  -3.58177575  -3.25419765  -0.17151612 
Cl  -0.64722244  -4.12003755   1.11836738 
Cl  -3.88195473  -0.22039808   0.75626493 
N   -0.96385077  -0.15928935   1.44085732 
C   -1.28674744   0.41614719   2.58441188 
C   -0.76833516   1.63760597   3.00618763 
C    0.08119957   2.30963633   2.15802544 
C   -0.05621526   0.42103709   0.62588938 
C    0.44470172   1.71760417   0.94312416 
H    0.47749534   3.28960433   2.43031091 
H   -1.98863636  -0.11573279   3.21311658 
H   -1.06252929   2.05760605   3.96052789 
C    0.38407021  -0.30630326  -0.54430158 
C    1.31206582   2.40396927   0.04793988 
C    1.63372363   1.79944820  -1.11813234 
C    1.18372546   0.47435058  -1.44146770 
H    1.70023422   3.38852047   0.31144844 
H    2.29680062   2.31962480  -1.80352461 
C    0.03942672  -1.69976264  -0.80828715 
C    1.62021926  -0.07459588  -2.65648187 
C    0.40239476  -2.09859017  -2.09614639 
C    1.19799554  -1.33713172  -2.97478271 
H    2.30671633   0.49127291  -3.29204442 
H    1.56580003  -1.78557797  -3.89146379 
H   -0.36049710  -2.77781848   0.03271345 
H    0.08983370  -3.07365045  -2.45530534 
*
