! EnGrad PBEh-3c
%output 
xyzfile=True 
end 
%scf 
maxiter 250 
end
%output
Print[P_Hirshfeld] = 1
end
% maxcore
4000
*xyz -1 1
Pd  -2.14568677  -1.69174069   0.63126444 
Cl  -3.57838780  -3.24957308  -0.18085878 
Cl  -0.60471742  -4.05402827   1.04703946 
Cl  -3.88045472  -0.22327831   0.77923475 
N   -0.96198698  -0.16288151   1.43848542 
C   -1.29529983   0.40808774   2.58693371 
C   -0.76690684   1.63872890   3.00147599 
C    0.07574817   2.30152469   2.16033555 
C   -0.05029794   0.41287680   0.63265444 
C    0.44524540   1.71290887   0.94770026 
H    0.47427435   3.28021119   2.42068949 
H   -1.99713941  -0.11285130   3.20757682 
H   -1.06282761   2.05403866   3.95612632 
C    0.39247601  -0.30844661  -0.53985866 
C    1.31181551   2.39130037   0.04156237 
C    1.63158466   1.79573453  -1.10836480 
C    1.19067253   0.46774055  -1.43890472 
H    1.69483320   3.37730838   0.31028548 
H    2.28952582   2.30527783  -1.80445339 
C    0.03980758  -1.68968734  -0.80481122 
C    1.61433114  -0.08225675  -2.64874456 
C    0.40062139  -2.10984202  -2.08357154 
C    1.19594605  -1.34595700  -2.97175557 
H    2.29686793   0.48434788  -3.27995659 
H    1.54988551  -1.78654414  -3.89069151 
H   -0.35584568  -2.73001287   0.06593652 
H    0.08919671  -3.07996800  -2.44891303 
*
