! EnGrad PBEh-3c
%output 
xyzfile=True 
end 
%scf 
maxiter 250 
end
%output
Print[P_Hirshfeld] = 1
end
% maxcore
4000
*xyz -1 1
Pd  -2.15956327  -1.67427851   0.61133336 
Cl  -3.58050872  -3.23693371  -0.18907908 
Cl  -0.56112157  -3.97572602   0.98166905 
Cl  -3.87680498  -0.21028363   0.78952447 
N   -0.96224867  -0.17014753   1.44147965 
C   -1.29363885   0.40103511   2.58293556 
C   -0.77388995   1.62368898   3.00429509 
C    0.07599272   2.29467616   2.15785400 
C   -0.03860817   0.40763098   0.64021719 
C    0.44505943   1.70125981   0.95327309 
H    0.46817233   3.26474201   2.41010608 
H   -2.01023650  -0.11784045   3.20269861 
H   -1.06086628   2.04358129   3.95203305 
C    0.40227093  -0.30564533  -0.54133655 
C    1.30485985   2.38523940   0.05145963 
C    1.63431591   1.78415452  -1.11555235 
C    1.19694924   0.46442545  -1.43019319 
H    1.68228522   3.36077478   0.30613223 
H    2.27634533   2.29179937  -1.80902660 
C    0.03728672  -1.66526595  -0.80322255 
C    1.60960928  -0.09517221  -2.64236557 
C    0.40731087  -2.11811838  -2.07293318 
C    1.19385383  -1.35936787  -2.96049683 
H    2.28018037   0.47656405  -3.27039905 
H    1.53284692  -1.79092074  -3.89474656 
H   -0.33831391  -2.68126427   0.10486333 
H    0.09680300  -3.09219898  -2.43255093 
*
