! EnGrad PBEh-3c
%output 
xyzfile=True 
end 
%scf 
maxiter 250 
end
%output
Print[P_Hirshfeld] = 1
end
% maxcore
4000
*xyz 1 1
Ir   0.51135835  -0.74031486   0.75579845 
C   -0.06180621  -2.82364958   1.41344791 
C    0.49484052  -2.11020324   2.50108655 
C    2.05591212  -2.22061715   0.83255660 
C    0.86587212  -2.86050375   0.35548065 
C    1.84118692  -1.77654809   2.14904396 
N   -1.04110902  -0.05458454  -0.46677434 
C   -2.46902587  -0.01837726   0.02537895 
C   -2.87302843   1.34506851   0.55088868 
H   -3.91045127   1.31982485   0.88969729 
H   -2.79418109   2.10733143  -0.22354976 
H   -2.29374342   1.62831221   1.41575286 
C   -3.46632251  -0.51366600  -1.01426139 
H   -2.48661372  -0.70936352   0.85267786 
H   -4.43968341  -0.63715275  -0.52255557 
H   -3.62819422   0.19410037  -1.82507684 
H   -3.19166267  -1.47665898  -1.42652635 
C   -0.78767756   0.26180357  -1.68653940 
C    0.52234262   0.20002151  -2.28854734 
H   -1.60031105   0.53710457  -2.32951466 
C    1.74934365   0.06267060  -1.55859034 
C    2.80440143  -0.08807372  -2.53631125 
S    0.73365514   0.20153075  -4.00135934 
C    2.41989115   0.00039146  -3.84349319 
H    2.16007257   1.07827501  -0.79140716 
H    3.84803147  -0.12025312  -2.25648012 
H    3.05746134  -0.08030783  -4.71177165 
H   -0.91827555  -3.47568491   1.48733702 
H    0.04660845  -2.00705282   3.49218124 
H    2.58218385  -1.38822033   2.81033353 
O    1.93353961   1.95409822   0.50053780 
O    0.19616071   1.08255797   1.70824429 
C    1.01083200   2.07775739   1.34280051 
C    0.83578004   3.43627138   2.02424042 
H    0.85581191   4.21440696   1.26335624 
H    1.70567915   3.61136634   2.66602414 
H   -0.05913103   3.51819019   2.62313179 
H    3.02204202  -2.26635986   0.35086684 
H    0.76862983  -3.46421028  -0.52795575 
*
