! EnGrad PBEh-3c
%output 
xyzfile=True 
end 
%scf 
maxiter 250 
end
%output
Print[P_Hirshfeld] = 1
end
% maxcore
4000
*xyz 1 1
Ir   0.51444221  -0.74086747   0.75705203 
C   -0.06168546  -2.82918278   1.41103132 
C    0.49819008  -2.10675759   2.50302373 
C    2.05977686  -2.23145886   0.83500089 
C    0.87044313  -2.86249177   0.35687286 
C    1.83746857  -1.77594343   2.15116196 
N   -1.04338481  -0.05693935  -0.47070731 
C   -2.46884779  -0.01736665   0.02350521 
C   -2.87339835   1.34624840   0.55256222 
H   -3.91023202   1.31750834   0.88786720 
H   -2.79350563   2.10834052  -0.22204396 
H   -2.28928591   1.62963918   1.41746694 
C   -3.46849314  -0.51321556  -1.01273571 
H   -2.48576651  -0.71365236   0.85544562 
H   -4.43683918  -0.63643566  -0.52337784 
H   -3.62825784   0.19527480  -1.82561887 
H   -3.19120439  -1.47852218  -1.42903037 
C   -0.78632016   0.26135537  -1.68698785 
C    0.53156919   0.19653104  -2.27879918 
H   -1.60626490   0.53926744  -2.33244338 
C    1.75442821   0.09634587  -1.55514506 
C    2.80286702  -0.08981530  -2.53136094 
S    0.73160907   0.19930900  -3.99763822 
C    2.41782150  -0.00262848  -3.84164423 
H    2.13576852   1.04754414  -0.79077990 
H    3.84745799  -0.12231946  -2.25533466 
H    3.05670292  -0.07839306  -4.71194818 
H   -0.92530876  -3.46794457   1.48221009 
H    0.04539924  -2.00407700   3.48623073 
H    2.58407371  -1.38177251   2.81428525 
O    1.93698026   1.96115604   0.49783976 
O    0.20843325   1.09214855   1.69904588 
C    1.00781492   2.06615793   1.34570929 
C    0.83924013   3.42959523   2.02073234 
H    0.85511628   4.21473588   1.26309821 
H    1.70457452   3.61061133   2.66465000 
H   -0.06194864   3.51775585   2.62426961 
H    3.02103160  -2.25857899   0.34901524 
H    0.77009378  -3.46204375  -0.53220503 
*
