! EnGrad PBEh-3c
%output 
xyzfile=True 
end 
%scf 
maxiter 250 
end
%output
Print[P_Hirshfeld] = 1
end
% maxcore
4000
*xyz 1 1
Ir   0.51166109  -0.76879633   0.79293741 
C   -0.04906741  -2.84922956   1.39419281 
C    0.50531284  -2.09328853   2.48897854 
C    2.09359348  -2.28645354   0.87085679 
C    0.90953977  -2.90388737   0.36508102 
C    1.84947170  -1.77162966   2.17263197 
N   -1.05472691  -0.07886508  -0.48702046 
C   -2.45808548  -0.02820658   0.02231661 
C   -2.85970322   1.34638743   0.56780341 
H   -3.90805602   1.29729717   0.87750576 
H   -2.78564157   2.11791934  -0.20216470 
H   -2.25468034   1.63851012   1.42702104 
C   -3.46795567  -0.51352618  -1.01687580 
H   -2.47851787  -0.73779810   0.85977288 
H   -4.42979510  -0.63273921  -0.52364876 
H   -3.62942123   0.20394794  -1.82511286 
H   -3.19239475  -1.47953334  -1.44788735 
C   -0.78742860   0.26312850  -1.69067080 
C    0.54615748   0.21906481  -2.21909310 
H   -1.62435696   0.55094815  -2.34996818 
C    1.77951864   0.28481313  -1.63966965 
C    2.81318533  -0.05650839  -2.50715926 
S    0.72163947   0.15417751  -3.93218203 
C    2.40782338  -0.04463011  -3.80925916 
H    1.94055585   0.80493529  -0.72368535 
H    3.84602816  -0.14044248  -2.24061172 
H    3.03744065  -0.06753210  -4.69399693 
H   -0.99506973  -3.38316315   1.42255776 
H    0.01980500  -1.96405470   3.44211403 
H    2.57914538  -1.32378245   2.83827849 
O    1.94628922   2.00511081   0.51035364 
O    0.27804874   1.08079723   1.62922836 
C    1.05609417   2.08585700   1.32432794 
C    0.83740032   3.39701601   2.01100346 
H    0.84873233   4.19475224   1.26671204 
H    1.69591384   3.59850069   2.64985605 
H   -0.06144439   3.50090656   2.61468024 
H    3.02350216  -2.18644874   0.33192379 
H    0.79273457  -3.43455368  -0.57052510 
*
