! EnGrad PBEh-3c
%output 
xyzfile=True 
end 
%scf 
maxiter 250 
end
%output
Print[P_Hirshfeld] = 1
end
% maxcore
4000
*xyz 1 1
Ir   0.48374755  -0.80515202   0.82886559 
C   -0.04592134  -2.84270485   1.37958628 
C    0.50207477  -2.09511697   2.47683336 
C    2.10849765  -2.27537140   0.87953780 
C    0.93441516  -2.93595705   0.37510476 
C    1.86840573  -1.78207122   2.18417573 
N   -1.05106587  -0.09555248  -0.47199450 
C   -2.45220367  -0.03953245   0.02549128 
C   -2.84431571   1.33586951   0.57111534 
H   -3.89484713   1.28819134   0.87632453 
H   -2.77759031   2.11903468  -0.18733653 
H   -2.24161086   1.64050871   1.42528935 
C   -3.46354766  -0.51377192  -1.01881626 
H   -2.47549972  -0.74367758   0.85132304 
H   -4.42994846  -0.63349352  -0.52365787 
H   -3.62786234   0.20687370  -1.82133473 
H   -3.19452502  -1.47284546  -1.45760010 
C   -0.80006223   0.27171295  -1.67550793 
C    0.51414937   0.26875212  -2.25742144 
H   -1.60636170   0.55090460  -2.34908191 
C    1.76153022   0.29444171  -1.64913232 
C    2.83749959   0.00211026  -2.52707061 
S    0.71242166   0.10298183  -3.93440407 
C    2.39575210  -0.06962096  -3.80955090 
H    1.86582929   0.69628041  -0.62526317 
H    3.86442624  -0.14098143  -2.22018680 
H    3.01612077  -0.07806880  -4.67793564 
H   -1.02910032  -3.30842427   1.37581912 
H   -0.00274026  -1.92588329   3.41955135 
H    2.56653139  -1.28721507   2.84216870 
O    1.98504973   2.03163909   0.51246924 
O    0.31029369   1.05734905   1.60518721 
C    1.07406344   2.09031541   1.30362403 
C    0.82849639   3.40077193   2.01766874 
H    0.84190446   4.17960854   1.26631797 
H    1.69460357   3.58963341   2.64805227 
H   -0.06517449   3.47652953   2.60818730 
H    3.02820080  -2.14576397   0.32274677 
H    0.81421709  -3.41172009  -0.58973027 
*
