! EnGrad PBEh-3c
%output 
xyzfile=True 
end 
%scf 
maxiter 250 
end
%output
Print[P_Hirshfeld] = 1
end
% maxcore
4000
*xyz 1 1
Ir   0.54872224  -0.80607038   0.49320818 
C    0.19975720  -2.91259294   0.79144742 
C   -0.06002756  -2.31002568   2.07381422 
C    2.11880007  -1.83331074   1.49673333 
C    1.57276465  -2.69375382   0.50785255 
C    1.09221216  -1.64497391   2.48573157 
N   -1.15812296  -0.19283706  -0.55820963 
C   -2.50647321  -0.24297630   0.02027552 
C   -2.68680034   0.82020856   1.08758849 
H   -3.66331306   0.72910266   1.56113618 
H   -2.61773278   1.81541724   0.64905193 
H   -1.95432854   0.73701481   1.88745019 
C   -3.65382787  -0.18532254  -0.97190944 
H   -2.57539054  -1.21543815   0.51222322 
H   -4.59788060  -0.36332614  -0.46102135 
H   -3.73666238   0.79449359  -1.44529931 
H   -3.56964358  -0.95176030  -1.74384558 
C   -0.96907476   0.19142718  -1.76783032 
C    0.34587599   0.15189386  -2.31201350 
H   -1.78824565   0.53033210  -2.39293290 
C    1.39078533  -0.27755587  -1.53015387 
C    2.60348215  -0.34960121  -2.25677857 
S    0.84056528   0.45935007  -3.92749626 
C    2.44942738   0.06077362  -3.55543639 
H    2.26545116   1.33847385  -0.84697358 
H    3.57264923  -0.62477544  -1.86298176 
H    3.21959966   0.09571083  -4.31125296 
H   -0.43554074  -3.61471618   0.27019634 
H   -0.96435957  -2.43088032   2.65182583 
H    1.20124842  -1.11344492   3.41982546 
O    2.14752194   2.22611248  -0.06447171 
O    0.54530338   1.24876599   1.12592762 
C    1.23216892   2.22925613   0.84047229 
C    1.09736969   3.51998419   1.56969654 
H    0.93926914   4.33385899   0.86306030 
H    2.01378139   3.74660324   2.11589363 
H    0.26933873   3.47179514   2.26937998 
H    3.15338803  -1.54136974   1.59431891 
H    2.11792696  -3.19580783  -0.27850132 
*
