! EnGrad PBEh-3c
%output 
xyzfile=True 
end 
%scf 
maxiter 250 
end
%output
Print[P_Hirshfeld] = 1
end
% maxcore
4000
*xyz 1 1
Ir   0.58048969  -0.78481926   0.42203156 
C    0.20356872  -2.91446701   0.82483141 
C   -0.07494453  -2.30646884   2.08505128 
C    2.13185638  -1.85044275   1.50347777 
C    1.55895934  -2.71333445   0.49186926 
C    1.13064330  -1.64906713   2.48435503 
N   -1.15909173  -0.19444049  -0.56175358 
C   -2.51824294  -0.24627413   0.03212786 
C   -2.68843302   0.84251375   1.08201050 
H   -3.67479024   0.74739000   1.53824221 
H   -2.62270804   1.82828650   0.62725408 
H   -1.96295430   0.76236276   1.87661824 
C   -3.64536669  -0.19407918  -0.98894362 
H   -2.56819908  -1.20604983   0.52329513 
H   -4.59239734  -0.37330464  -0.46207675 
H   -3.73776376   0.77679536  -1.46188933 
H   -3.55731102  -0.96774338  -1.74067319 
C   -0.97319062   0.19802624  -1.77450488 
C    0.36397555   0.15176235  -2.31310606 
H   -1.78732422   0.52736322  -2.38992128 
C    1.36714500  -0.28945403  -1.45293977 
C    2.61390619  -0.33030970  -2.25106913 
S    0.83390718   0.45883969  -3.93788923 
C    2.44198408   0.05570541  -3.57046800 
H    2.22498611   1.43690759  -0.72624143 
H    3.57681451  -0.61808127  -1.87195202 
H    3.21107212   0.09279608  -4.32625296 
H   -0.45720945  -3.60707591   0.29850940 
H   -0.94702247  -2.40447896   2.67601227 
H    1.24218572  -1.11399090   3.40973066 
O    2.18096816   2.14400635  -0.15774468 
O    0.52410545   1.22703656   1.14604863 
C    1.25008680   2.19863563   0.82982493 
C    1.08540680   3.52166722   1.58696780 
H    0.93686183   4.33283903   0.87736901 
H    2.00484646   3.74161690   2.13332970 
H    0.25916811   3.47355435   2.28056309 
H    3.15919748  -1.56034124   1.56061300 
H    2.08381057  -3.19456597  -0.30247788 
*
