! EnGrad PBEh-3c
%output 
xyzfile=True 
end 
%scf 
maxiter 250 
end
%output
Print[P_Hirshfeld] = 1
end
% maxcore
4000
*xyz 1 1
Ir   0.57846083  -0.78900136   0.42915552 
C    0.19966138  -2.91776944   0.82088261 
C   -0.06312362  -2.30162960   2.08413379 
C    2.13068961  -1.85307473   1.49826440 
C    1.56071779  -2.70801643   0.49726588 
C    1.12257501  -1.65184036   2.48361541 
N   -1.15923113  -0.19430743  -0.56416767 
C   -2.51568092  -0.24368627   0.02979026 
C   -2.69016107   0.84082268   1.08100412 
H   -3.67424663   0.74721966   1.53884990 
H   -2.62242353   1.82840135   0.62780122 
H   -1.96159883   0.76188287   1.87802911 
C   -3.64725093  -0.19457675  -0.98502740 
H   -2.56853805  -1.20829334   0.52416092 
H   -4.59125476  -0.37274679  -0.46302147 
H   -3.73766673   0.77822706  -1.46220233 
H   -3.55734236  -0.96811551  -1.74197874 
C   -0.96934914   0.19691049  -1.77445248 
C    0.35996863   0.15061666  -2.30762835 
H   -1.78940975   0.52826183  -2.39122179 
C    1.37237431  -0.28780222  -1.46777432 
C    2.60577351  -0.33048533  -2.24878795 
S    0.83394098   0.45893842  -3.93633205 
C    2.44252567   0.05426762  -3.56386889 
H    2.22632331   1.40969209  -0.74721116 
H    3.57801887  -0.61856474  -1.87114660 
H    3.21131449   0.09285991  -4.32591580 
H   -0.45571744  -3.60516884   0.29832479 
H   -0.95149771  -2.40507863   2.67712510 
H    1.24149278  -1.11266654   3.41052943 
O    2.16927631   2.17638006  -0.12271615 
O    0.53247277   1.23450584   1.14064809 
C    1.25000939   2.19380990   0.82501665 
C    1.09045134   3.51673867   1.58117877 
H    0.93687690   4.33300824   0.87676636 
H    2.00493777   3.74177737   2.13277249 
H    0.25865893   3.47253371   2.28044602 
H    3.16102768  -1.55948627   1.56210820 
H    2.08575509  -3.19533377  -0.30421341 
*
