! EnGrad PBEh-3c
%output 
xyzfile=True 
end 
%scf 
maxiter 250 
end
%output
Print[P_Hirshfeld] = 1
end
% maxcore
4000
*xyz 1 1
Ir   0.58266800  -0.78951022   0.42290416 
C    0.19772232  -2.92018989   0.82404030 
C   -0.05731258  -2.29683286   2.08668175 
C    2.13261439  -1.85872487   1.49456017 
C    1.55945715  -2.70810277   0.49768030 
C    1.12433496  -1.65446247   2.48304731 
N   -1.15940602  -0.19454574  -0.56691327 
C   -2.51516666  -0.24213639   0.02967520 
C   -2.69191656   0.84401060   1.07861060 
H   -3.67634337   0.75110148   1.53454236 
H   -2.62324491   1.83129985   0.62357876 
H   -1.96229228   0.76708031   1.87697293 
C   -3.64705500  -0.19694740  -0.98497535 
H   -2.56730326  -1.20816058   0.52736542 
H   -4.58918182  -0.37443785  -0.46413889 
H   -3.73777142   0.77559610  -1.46606820 
H   -3.55467062  -0.97191457  -1.74244296 
C   -0.96757484   0.19733129  -1.77599722 
C    0.35970857   0.14973454  -2.30345425 
H   -1.79088065   0.52851600  -2.39183873 
C    1.37303942  -0.28833718  -1.46756553 
C    2.60115770  -0.32743210  -2.24447043 
S    0.83254887   0.45862186  -3.93584947 
C    2.44139762   0.05205727  -3.56092173 
H    2.21922661   1.41331211  -0.73502774 
H    3.57907661  -0.61718659  -1.87249605 
H    3.20922099   0.09213989  -4.32802767 
H   -0.45956892  -3.60206890   0.30399845 
H   -0.95060997  -2.39957457   2.68253312 
H    1.24968242  -1.11168062   3.40862019 
O    2.16578138   2.17989287  -0.11693567 
O    0.53556675   1.23417219   1.13884531 
C    1.25297363   2.18883591   0.82171302 
C    1.09223813   3.51097517   1.57914651 
H    0.93645215   4.33270539   0.87921943 
H    2.00316468   3.74070340   2.13593888 
H    0.25682414   3.47163032   2.28188011 
H    3.16399185  -1.56301870   1.55627042 
H    2.07985513  -3.19553345  -0.31048032 
*
