! EnGrad PBEh-3c
%output 
xyzfile=True 
end 
%scf 
maxiter 250 
end
%output
Print[P_Hirshfeld] = 1
end
% maxcore
4000
*xyz 1 1
Ir   0.60335795  -0.79486248   0.39459582 
C    0.19396175  -2.92532349   0.84465511 
C   -0.04329809  -2.27789206   2.10309123 
C    2.14621221  -1.88520508   1.47855705 
C    1.55128009  -2.71774590   0.48950410 
C    1.14753201  -1.66245420   2.48242097 
N   -1.15956420  -0.19661583  -0.57893822 
C   -2.51141812  -0.23739904   0.02909848 
C   -2.69866706   0.86311946   1.06520469 
H   -3.68903418   0.77332334   1.51011032 
H   -2.62808830   1.84746116   0.59965861 
H   -1.96773701   0.79752790   1.86958615 
C   -3.64291596  -0.20966720  -0.98887067 
H   -2.55972711  -1.20424165   0.54434237 
H   -4.57987312  -0.38472436  -0.46918228 
H   -3.73830590   0.75869733  -1.48730356 
H   -3.53955260  -0.99243952  -1.74349894 
C   -0.96581792   0.20044837  -1.78503247 
C    0.35916167   0.14723142  -2.28972047 
H   -1.79675573   0.52984317  -2.39515630 
C    1.37334520  -0.29100963  -1.46403335 
C    2.58845055  -0.31460026  -2.22106720 
S    0.82521932   0.45555867  -3.92794373 
C    2.43402100   0.04185503  -3.54851781 
H    2.18056046   1.42668870  -0.67138852 
H    3.57896508  -0.60768551  -1.88010841 
H    3.19428039   0.08720286  -4.33482063 
H   -0.48542571  -3.58715195   0.33388377 
H   -0.93774618  -2.36579245   2.70854081 
H    1.29604159  -1.10673751   3.39540334 
O    2.15614885   2.20338377  -0.09237634 
O    0.54980448   1.21972550   1.12617605 
C    1.26087961   2.17938102   0.82061458 
C    1.09675547   3.48097612   1.57269175 
H    0.93498423   4.32809555   0.89344080 
H    1.99298472   3.73301953   2.15260701 
H    0.25211911   3.46447077   2.28430533 
H    3.17934437  -1.58472240   1.52281733 
H    2.04435257  -3.19442436  -0.34296814 
*
