! EnGrad PBEh-3c
%output 
xyzfile=True 
end 
%scf 
maxiter 250 
end
%output
Print[P_Hirshfeld] = 1
end
% maxcore
4000
*xyz 1 1
Ir   0.61289069  -0.80977820   0.39627336 
C    0.18343012  -2.92430867   0.86787220 
C   -0.02078998  -2.25871297   2.12249911 
C    2.16310239  -1.91232852   1.45396817 
C    1.53445119  -2.73437634   0.47547996 
C    1.18843650  -1.66855870   2.47453995 
N   -1.15655783  -0.20008585  -0.58509370 
C   -2.50311902  -0.23398488   0.02609162 
C   -2.70478244   0.88825044   1.04342359 
H   -3.70427513   0.80474342   1.47646316 
H   -2.63497326   1.86782608   0.56521670 
H   -1.97998406   0.84185105   1.85638092 
C   -3.63310135  -0.22762933  -0.99695492 
H   -2.54963012  -1.19026062   0.56416820 
H   -4.57147626  -0.40051448  -0.47559281 
H   -3.73755916   0.73114888  -1.51366373 
H   -3.51932846  -1.01940972  -1.74051306 
C   -0.97089377   0.20150612  -1.78921696 
C    0.35335797   0.14940687  -2.28934440 
H   -1.80110218   0.53350806  -2.40184610 
C    1.37406491  -0.28862503  -1.46666691 
C    2.58877567  -0.30620886  -2.21357087 
S    0.81925355   0.44798490  -3.91138334 
C    2.42456696   0.03483538  -3.53649441 
H    2.14462580   1.42532671  -0.61440561 
H    3.57758186  -0.59257521  -1.88443425 
H    3.16994384   0.07805680  -4.33297068 
H   -0.52332446  -3.56887185   0.37536007 
H   -0.91340174  -2.31943065   2.74260309 
H    1.36259734  -1.09978871   3.37766940 
O    2.15564621   2.23526464  -0.06869718 
O    0.56807008   1.19555197   1.10726339 
C    1.24645168   2.18719613   0.85236859 
C    1.08935662   3.46596409   1.58747795 
H    0.93557805   4.31256830   0.91291500 
H    1.97772242   3.71734306   2.17131137 
H    0.25226941   3.44924481   2.28036728 
H    3.19966885  -1.61822859   1.47544357 
H    1.99479389  -3.19854414  -0.38368302 
*
