! EnGrad PBEh-3c
%output 
xyzfile=True 
end 
%scf 
maxiter 250 
end
%output
Print[P_Hirshfeld] = 1
end
% maxcore
4000
*xyz 1 1
Ir   0.62192301  -0.82590113   0.39894506 
C    0.17036246  -2.91878050   0.89923213 
C   -0.00004722  -2.23964219   2.14931656 
C    2.18685229  -1.94507570   1.42273533 
C    1.50954508  -2.76133307   0.45279002 
C    1.25074912  -1.67138809   2.46469015 
N   -1.15240202  -0.20599794  -0.58644187 
C   -2.49524062  -0.23008097   0.02421202 
C   -2.71170196   0.92196248   1.01367670 
H   -3.72203891   0.84639473   1.43073767 
H   -2.64405330   1.89354361   0.51822083 
H   -1.99848824   0.90174039   1.83686380 
C   -3.61943964  -0.25184625  -1.00894943 
H   -2.53603164  -1.16794819   0.58846254 
H   -4.56066387  -0.42227510  -0.48423272 
H   -3.73567284   0.69249776  -1.54712386 
H   -3.49277536  -1.05512997  -1.73479910 
C   -0.97958274   0.20242415  -1.79316866 
C    0.34903487   0.15163119  -2.28966958 
H   -1.80481966   0.53825997  -2.40938875 
C    1.36964425  -0.28535728  -1.45894547 
C    2.59225927  -0.29854973  -2.20795571 
S    0.81178214   0.43943423  -3.89730483 
C    2.41191140   0.03010433  -3.53103018 
H    2.10267667   1.42941583  -0.54035229 
H    3.57837800  -0.57318629  -1.88592076 
H    3.13890045   0.06546788  -4.32840781 
H   -0.57588235  -3.54559698   0.42967682 
H   -0.87361470  -2.25732194   2.78490531 
H    1.45234608  -1.09153084   3.35166244 
O    2.15097410   2.26259585  -0.04263581 
O    0.58215039   1.16504745   1.09363629 
C    1.24226951   2.19436865   0.87823184 
C    1.07439676   3.45880513   1.61735284 
H    0.93643363   4.29161771   0.93660977 
H    1.96006243   3.69529271   2.19715747 
H    0.24508562   3.42915781   2.28213992 
H    3.22523894  -1.66464635   1.41080838 
H    1.92743530  -3.20538430  -0.43463183 
*
