! EnGrad PBEh-3c
%output 
xyzfile=True 
end 
%scf 
maxiter 250 
end
%output
Print[P_Hirshfeld] = 1
end
% maxcore
4000
*xyz 0 1
Lu   0.09952190   0.36065562  -0.21080934 
C    0.29518106   1.04044066   2.32750901 
C    1.23330276  -0.00323487   2.16808507 
C    2.23546552   0.43772973   1.28866461 
C    1.92244924   1.75667654   0.89621172 
C    0.72856980   2.13311399   1.55484003 
H    2.52806713   2.38453730   0.25843960 
H    0.22611067   3.08518247   1.46867194 
H   -0.56670505   1.02649529   2.97914780 
H    1.22274416  -0.95595446   2.68521908 
H    3.11359532  -0.12075893   1.00111420 
C    1.04243159  -0.01704036  -2.55402217 
C   -0.27049119  -0.53289990  -2.62411752 
C    0.95776833  -1.90172189  -1.27905966 
C    1.80395257  -0.87367459  -1.72861155 
H    1.41671984   0.84648069  -3.08467079 
C   -0.32372373  -1.69037272  -1.82698735 
H   -1.09311569  -0.10950227  -3.18031494 
H    2.85929785  -0.78543516  -1.52204615 
H    1.25529626  -2.74932430  -0.67178232 
H   -1.17225778  -2.35287389  -1.72049479 
C   -2.28776284  -1.64705026   1.37287285 
H   -2.42734771  -1.45343309   2.43631283 
H   -2.89048287  -2.48597565   1.02570292 
H   -2.47931613  -0.74906300   0.77805056 
C   -1.83246251   1.66423846  -0.68362848 
H   -1.18669285  -1.99605555   1.23593918 
H   -1.48482081   2.50099701  -1.31770659 
H   -2.35894442   2.13581219   0.16191061 
H   -2.60101807   1.15296880  -1.28604189 
*
