! EnGrad PBEh-3c
%output 
xyzfile=True 
end 
%scf 
maxiter 250 
end
%output
Print[P_Hirshfeld] = 1
end
% maxcore
4000
*xyz 0 1
Lu   0.03444757   0.38408110  -0.21431913 
C    0.30445293   1.05086001   2.33184393 
C    1.23107713  -0.00754300   2.18338356 
C    2.23821514   0.43555409   1.30667460 
C    1.92492752   1.74687064   0.89495965 
C    0.73120259   2.13597394   1.54586777 
H    2.53901602   2.37950332   0.26821046 
H    0.24048110   3.09234036   1.46550010 
H   -0.57925928   1.03589104   2.95594595 
H    1.22296035  -0.94319148   2.71888187 
H    3.10928419  -0.13137915   1.01026706 
C    1.04859427  -0.01799895  -2.54883510 
C   -0.26642371  -0.52936595  -2.62911094 
C    0.96078932  -1.92022637  -1.28150651 
C    1.80433457  -0.88986831  -1.73740358 
H    1.42669406   0.84092564  -3.08690598 
C   -0.31964749  -1.69139329  -1.84013222 
H   -1.08360290  -0.10412125  -3.18931844 
H    2.86109967  -0.80017103  -1.52416805 
H    1.25669305  -2.76676877  -0.68652875 
H   -1.18359926  -2.33204365  -1.72717580 
C   -2.19784153  -1.67767662   1.36714735 
H   -2.40872443  -1.47538710   2.43232396 
H   -2.87571954  -2.48065141   1.02762255 
H   -2.41665851  -0.75643817   0.77892894 
C   -1.84431806   1.66350877  -0.67185206 
H   -1.27299321  -2.00268350   1.26321395 
H   -1.50899863   2.48940005  -1.30459124 
H   -2.38597443   2.15158893   0.13484216 
H   -2.60867468   1.17370724  -1.26968694 
*
