! EnGrad PBEh-3c
%output 
xyzfile=True 
end 
%scf 
maxiter 250 
end
%output
Print[P_Hirshfeld] = 1
end
% maxcore
4000
*xyz 0 1
Lu   0.09566554   0.36380850  -0.21158773 
C    0.29483113   1.04206962   2.32865243 
C    1.23405737  -0.00395881   2.17104180 
C    2.23615177   0.43706497   1.28971853 
C    1.92218681   1.75575142   0.89567102 
C    0.73000394   2.13247773   1.55500945 
H    2.52945657   2.38376941   0.25954740 
H    0.22718710   3.08630420   1.46819618 
H   -0.56732336   1.02750524   2.97734075 
H    1.22332944  -0.95453053   2.68920435 
H    3.11322070  -0.12169314   1.00251126 
C    1.04267568  -0.01769104  -2.55268600 
C   -0.26914016  -0.53287078  -2.62555550 
C    0.95844414  -1.90507315  -1.27953117 
C    1.80446802  -0.87414378  -1.72934670 
H    1.41801245   0.84602034  -3.08498876 
C   -0.32484078  -1.69137177  -1.82808652 
H   -1.09247471  -0.10906368  -3.18108964 
H    2.85951673  -0.78745330  -1.52255151 
H    1.25534363  -2.75125245  -0.67400734 
H   -1.17261577  -2.35143101  -1.72186647 
C   -2.29080599  -1.64689885   1.37397333 
H   -2.42455657  -1.45515173   2.44035415 
H   -2.88891130  -2.48961888   1.02428895 
H   -2.47253854  -0.74569423   0.77540750 
C   -1.83515608   1.66497378  -0.68244748 
H   -1.18534064  -2.00093652   1.23715033 
H   -1.48618949   2.50059790  -1.31726373 
H   -2.36334930   2.13866216   0.16064511 
H   -2.60332413   1.15421606  -1.28566402 
*
