! EnGrad PBEh-3c
%output 
xyzfile=True 
end 
%scf 
maxiter 250 
end
%output
Print[P_Hirshfeld] = 1
end
% maxcore
4000
*xyz 0 1
Lu   0.10911259   0.35281450  -0.20887350 
C    0.29605133   1.03638948   2.32466534 
C    1.23142607  -0.00143447   2.16073174 
C    2.23375880   0.43938296   1.28604353 
C    1.92310189   1.75897729   0.89755641 
C    0.72500313   2.13469636   1.55441870 
H    2.52461162   2.38644703   0.25568453 
H    0.22343361   3.08239274   1.46985515 
H   -0.56516733   1.02398356   2.98364189 
H    1.22128858  -0.95949575   2.67530780 
H    3.11452699  -0.11843556   0.99763974 
C    1.04182455  -0.01542215  -2.55734521 
C   -0.27385115  -0.53297233  -2.62054129 
C    0.95608760  -1.89338737  -1.27788704 
C    1.80267064  -0.87250773  -1.72678326 
H    1.41350517   0.84762558  -3.08388002 
C   -0.32094566  -1.68788809  -1.82425374 
H   -1.09470978  -0.11059301  -3.17838827 
H    2.85875350  -0.78041608  -1.52078932 
H    1.25517844  -2.74452903  -0.66624874 
H   -1.17136747  -2.35646229  -1.71708345 
C   -2.28019458  -1.64742683   1.37013598 
H   -2.43428921  -1.44915886   2.42626216 
H   -2.89439133  -2.47691501   1.02921944 
H   -2.49617186  -0.75744103   0.78462380 
C   -1.82576365   1.66240975  -0.68656559 
H   -1.19005576  -1.98391668   1.23292708 
H   -1.48141694   2.50198958  -1.31880798 
H   -2.34798957   2.12872436   0.16505786 
H   -2.59528296   1.14986687  -1.28698165 
*
