39
Generated by autodE on: 2023-07-07. E = -59.573526 Ha
Ir    0.53708  -0.81277   0.35767
C     0.42673  -2.96841   0.54975
C    -0.18672  -2.55149   1.78835
C     1.97820  -1.79990   1.75724
C     1.81178  -2.60013   0.61241
C     0.74204  -1.81907   2.50149
N    -1.21518  -0.24485  -0.59596
C    -2.48086  -0.23889   0.12167
C    -2.53656   1.00072   1.01927
H    -3.43889   0.97561   1.62256
H    -2.54706   1.90247   0.41116
H    -1.67453   1.03424   1.68027
C    -3.70721  -0.31109  -0.78587
H    -2.47358  -1.12820   0.75966
H    -4.58191  -0.51613  -0.17518
H    -3.87845   0.62857  -1.30461
H    -3.60423  -1.11265  -1.51346
C    -1.10799   0.17255  -1.81640
C     0.20103   0.13290  -2.34515
H    -1.95228   0.51926  -2.39728
C     1.21237  -0.31452  -1.49398
C     2.45732  -0.31027  -2.15488
S     0.77580   0.52725  -3.93121
C     2.36207   0.11201  -3.45612
H     2.19818   1.47087  -0.81820
H     3.38954  -0.62061  -1.71744
H     3.16067   0.18899  -4.16833
H     0.00779  -3.69111  -0.13366
H    -1.18353  -2.80364   2.10503
H     0.60166  -1.38119   3.47462
O     2.14172   2.31919  -0.32157
O     0.70662   1.26660   1.02735
C     1.34096   2.26732   0.70597
C     1.25827   3.53485   1.48837
H     1.50866   4.38051   0.85490
H     1.98331   3.48998   2.30129
H     0.26977   3.64951   1.92417
H     2.91652  -1.42678   2.13598
H     2.58091  -2.92172  -0.06986
