! EnGrad PBEh-3c
%output 
xyzfile=True 
end 
%scf 
maxiter 250 
end
%output
Print[P_Hirshfeld] = 1
end
% maxcore
4000
*xyz 1 1
Sc   1.77477222  -1.33432511  -1.41209568 
C    0.40104700  -0.63558792   0.18965488 
N   -0.48941077  -1.36495129   0.92155169 
C   -0.82737004  -0.74892726   2.09717182 
C   -0.16531755   0.43107263   2.12200091 
N    0.56123754   0.48582630   0.96895470 
C    1.45228172   1.61520612   0.58079086 
H    1.61668914   2.26290133   1.44613036 
H    0.99545260   2.17592975  -0.18719975 
H    2.42232476   1.23746279   0.27927960 
C   -1.00920622  -2.67937620   0.55317591 
H   -0.58305111  -2.99416585  -0.39110766 
H   -2.08883294  -2.63252619   0.45349822 
H   -0.74501886  -3.40788411   1.31773589 
H   -1.47135470  -1.18341731   2.82663125 
H   -0.17175358   1.20498356   2.84266780 
C   -0.35071423   1.54181703  -2.91336631 
H   -1.08030261   1.61569696  -3.62314852 
H    0.18828523   2.60525175  -2.93854971 
H   -0.82018101   1.53139682  -1.89846678 
H    0.39086140   0.27485451  -3.23633182 
*
