! EnGrad PBEh-3c
%output 
xyzfile=True 
end 
%scf 
maxiter 250 
end
%output
Print[P_Hirshfeld] = 1
end
% maxcore
4000
*xyz 1 1
Sc   1.74714288  -1.30499819  -1.44111775 
C    0.41876650  -0.63427415   0.21152502 
N   -0.48111816  -1.36254943   0.91643562 
C   -0.82856537  -0.74680908   2.09494129 
C   -0.16435651   0.42003388   2.13285915 
N    0.56674392   0.49318288   0.96803426 
C    1.45115367   1.62162278   0.58722247 
H    1.59300951   2.25776961   1.45669927 
H    0.99204539   2.18309293  -0.20951362 
H    2.42559188   1.23459305   0.29130181 
C   -1.00561666  -2.67727938   0.55410814 
H   -0.58317164  -2.98840317  -0.39658525 
H   -2.08714675  -2.63487824   0.45722046 
H   -0.73663369  -3.40806283   1.31399715 
H   -1.47495076  -1.19026144   2.83211132 
H   -0.16250852   1.21280632   2.85792009 
C   -0.30378409   1.46398687  -2.92704883 
H   -1.08745844   1.61507076  -3.65938312 
H    0.24987716   2.52642593  -2.94658882 
H   -0.79053411   1.51480509  -1.91970558 
H    0.26259398   0.40676296  -3.17675319 
*
