! EnGrad PBEh-3c
%output 
xyzfile=True 
end 
%scf 
maxiter 250 
end
%output
Print[P_Hirshfeld] = 1
end
% maxcore
4000
*xyz 1 1
Sc   1.71506172  -1.26989670  -1.48067068 
C    0.41699212  -0.62377571   0.23670627 
N   -0.47503716  -1.36602194   0.93033525 
C   -0.82238984  -0.74846297   2.09628605 
C   -0.15437668   0.43325136   2.12545776 
N    0.58059571   0.49258200   0.98152845 
C    1.43544878   1.61208859   0.59510773 
H    1.56643247   2.26293594   1.46338167 
H    1.00047597   2.18209722  -0.21769689 
H    2.42142078   1.24293451   0.31050862 
C   -0.99531138  -2.67193038   0.55136920 
H   -0.58418334  -2.98153468  -0.40323580 
H   -2.08021356  -2.63512037   0.46341636 
H   -0.72434698  -3.40716064   1.30762303 
H   -1.47554680  -1.19674249   2.82736312 
H   -0.15367761   1.20692087   2.86931283 
C   -0.31235725   1.48520696  -2.94253728 
H   -1.06694060   1.60751933  -3.67114325 
H    0.32311838   2.35572007  -2.96915140 
H   -0.76348243   1.47850840  -1.95668459 
H    0.15147229   0.54643255  -3.12253438 
*
