! EnGrad PBEh-3c
%output 
xyzfile=True 
end 
%scf 
maxiter 250 
end
%output
Print[P_Hirshfeld] = 1
end
% maxcore
4000
*xyz 1 1
Sc   1.70549842  -1.26010248  -1.49155182 
C    0.41513595  -0.62465943   0.23992901 
N   -0.47033164  -1.36681250   0.93761888 
C   -0.81891143  -0.74378570   2.10044723 
C   -0.15620070   0.43659636   2.12414971 
N    0.58691794   0.48915188   0.98571625 
C    1.43225054   1.60961186   0.59998552 
H    1.55793423   2.26348664   1.46198855 
H    1.00465529   2.17880703  -0.21615969 
H    2.41689324   1.24758667   0.31596852 
C   -0.99222486  -2.67069166   0.55185910 
H   -0.58369687  -2.97919059  -0.40595697 
H   -2.07601164  -2.63367555   0.46521562 
H   -0.72065400  -3.40670643   1.30455210 
H   -1.47599055  -1.19657780   2.82173199 
H   -0.15110871   1.20427153   2.87085498 
C   -0.34272761   1.51900112  -2.93534815 
H   -1.06784538   1.60522380  -3.67841074 
H    0.36131626   2.29581945  -2.98278364 
H   -0.76017736   1.46075197  -1.96539630 
H    0.13977412   0.57916919  -3.11128028 
*
