! EnGrad PBEh-3c
%output 
xyzfile=True 
end 
%scf 
maxiter 250 
end
%output
Print[P_Hirshfeld] = 1
end
% maxcore
4000
%pal nprocs 4
end
*xyz 0 1
Pd   0.82870000   0.73900000  -0.60406000 
O    2.45890000   1.87027000  -0.05280000 
C    1.70181000   2.86527000   0.09377000 
O    0.46137000   2.68779000  -0.09865000 
C    2.24296000   4.21326000   0.43766000 
H    1.49914000   4.81145000   0.95876000 
H    2.50943000   4.73366000  -0.48397000 
H    3.14321000   4.12639000   1.04172000 
N   -1.07263000   0.00613000  -1.06554000 
C   -1.15940000  -0.25655000  -2.51416000 
H   -0.89237000   0.63671000  -3.07390000 
H   -2.17942000  -0.55109000  -2.78294000 
H   -0.47917000  -1.05247000  -2.79967000 
C   -2.06321000   1.04065000  -0.72428000 
H   -2.00206000   1.30545000   0.32747000 
H   -3.07436000   0.68024000  -0.94281000 
H   -1.88014000   1.93441000  -1.31557000 
C   -1.33454000  -1.15969000   1.14989000 
C   -0.14331000  -1.36246000   1.84230000 
C   -0.11255000  -1.27696000   3.22579000 
C   -1.27019000  -0.99590000   3.93609000 
C   -2.46488000  -0.81036000   3.25741000 
C   -2.49384000  -0.89690000   1.87414000 
H   -1.24339000  -0.93301000   5.01592000 
H   -3.37562000  -0.60532000   3.80442000 
H    0.76045000  -1.60696000   1.29944000 
H    0.82014000  -1.43892000   3.74968000 
H   -3.43445000  -0.76586000   1.35141000 
C   -1.38065000  -1.26129000  -0.34797000 
H   -2.38049000  -1.58796000  -0.66223000 
H   -0.66999000  -2.00856000  -0.69644000 
O    1.60612000  -1.03807000  -0.96913000 
C    2.23274000  -1.12529000  -2.10753000 
O    2.22304000  -0.26682000  -2.96556000 
C    3.00099000  -2.42045000  -2.26795000 
H    2.41501000  -3.27879000  -1.94093000 
H    3.89798000  -2.39130000  -1.64723000 
H    3.30467000  -2.55970000  -3.30253000 
*
