! EnGrad PBEh-3c
%output 
xyzfile=True 
end 
%scf 
maxiter 250 
end
%output
Print[P_Hirshfeld] = 1
end
% maxcore
4000
*xyz 0 1
Lu   0.01258665  -0.00049644   0.04884865 
C    0.43671461   0.79755160   2.50582949 
C    1.42862415  -0.16028635   2.20041180 
C    2.29335712   0.39813976   1.24465438 
C    1.81671869   1.68061450   0.91382576 
C    0.66632611   1.92577472   1.69705274 
H    2.31045364   2.38792777   0.26210532 
H    0.10431531   2.85113207   1.72148890 
H   -0.34071872   0.69195122   3.24749786 
H    1.55748603  -1.12150326   2.68473682 
H    3.20688920  -0.05166979   0.87631573 
C    0.89992280  -0.07323918  -2.40610644 
C   -0.36246631  -0.71015925  -2.43884342 
C    1.05418491  -2.00135683  -1.20291188 
C    1.77370823  -0.88424159  -1.66087734 
H    1.17644158   0.82343557  -2.94034943 
C   -0.26786724  -1.90474838  -1.69740290 
H   -1.23392489  -0.36004622  -2.96911834 
H    2.83511652  -0.71933787  -1.53445839 
H    1.46490743  -2.83547619  -0.64962352 
H   -1.05327872  -2.62409676  -1.54860796 
C   -2.24669007  -1.36205715   1.15155455 
H   -2.23369330  -1.27606604   2.24686581 
H   -1.83937584  -2.37079638   0.97154078 
H   -3.31450295  -1.45582776   0.89479680 
C   -1.94053087   1.72734501  -0.74709380 
H   -2.08058250   0.31306280   0.18939503 
H   -1.07532508   2.31403503  -1.14010744 
H   -2.52143260   2.50615275  -0.23126461 
H   -2.51289642   1.50687307  -1.65448682 
*
