! EnGrad PBEh-3c
%output 
xyzfile=True 
end 
%scf 
maxiter 250 
end
%output
Print[P_Hirshfeld] = 1
end
% maxcore
4000
*xyz 0 1
Lu   0.06641152   0.01621428   0.02788917 
C    0.41388858   0.79494353   2.48194840 
C    1.40650222  -0.16582838   2.19481140 
C    2.28161679   0.39224552   1.23168675 
C    1.80929164   1.67744023   0.90616441 
C    0.65245889   1.92587234   1.67816613 
H    2.31369188   2.38105046   0.25670590 
H    0.10999580   2.85800791   1.71262994 
H   -0.37216576   0.69243892   3.21864813 
H    1.54919547  -1.11388898   2.68352531 
H    3.17795528  -0.06418694   0.85846818 
C    0.89736035  -0.06922613  -2.40353110 
C   -0.36459182  -0.69821396  -2.42757026 
C    1.03992250  -1.99351465  -1.18951438 
C    1.77079650  -0.87378152  -1.65156185 
H    1.18814965   0.82258738  -2.94463109 
C   -0.27280770  -1.88274273  -1.68925650 
H   -1.23361703  -0.34437751  -2.96955530 
H    2.82029932  -0.70233527  -1.50893942 
H    1.45559716  -2.82093907  -0.63816068 
H   -1.06563404  -2.61458736  -1.54548726 
C   -2.24377772  -1.20652942   1.08970142 
H   -2.20981679  -1.18088184   2.19090139 
H   -1.77856470  -2.17881990   0.85741330 
H   -3.32566945  -1.40983855   0.90502334 
C   -1.91149163   1.58109034  -0.67096085 
H   -2.09270730   0.22143877   0.18776074 
H   -1.06566375   2.18959372  -1.06447295 
H   -2.48463453   2.36061212  -0.14307043 
H   -2.50297263   1.42850684  -1.59156339 
*
