! EnGrad PBEh-3c
%output 
xyzfile=True 
end 
%scf 
maxiter 250 
end
%output
Print[P_Hirshfeld] = 1
end
% maxcore
4000
*xyz 0 1
Lu   0.07990772  -0.02073589   0.05743903 
C    0.45991666   0.75768625   2.51728781 
C    1.47428040  -0.16619153   2.22515900 
C    2.33984755   0.42353814   1.28498860 
C    1.82034747   1.68202667   0.95336582 
C    0.65381869   1.89596467   1.72111635 
H    2.24604210   2.39420159   0.24086065 
H    0.08768677   2.80897836   1.76523149 
H   -0.25778952   0.66914727   3.33500191 
H    1.59411617  -1.14389977   2.68552906 
H    3.25182310  -0.01277053   0.90492434 
C    0.88546058  -0.09709692  -2.40699958 
C   -0.37932398  -0.72664110  -2.38995050 
C    1.07916308  -2.03718101  -1.22879403 
C    1.78716885  -0.92100534  -1.71455402 
H    1.10603433   0.84331992  -2.89546213 
C   -0.25896735  -1.92700291  -1.66121264 
H   -1.24008193  -0.43151267  -2.96541907 
H    2.84514605  -0.73795686  -1.57270066 
H    1.49903026  -2.86719541  -0.68113018 
H   -1.03005813  -2.67435551  -1.56239242 
C   -2.19025760  -1.58363551   1.23350551 
H   -2.25973949  -1.36162774   2.29094864 
H   -1.98474221  -2.69835747   1.17130719 
H   -3.14573128  -1.52332466   0.78808822 
C   -1.95817206   2.02416299  -0.91739306 
H   -2.43576991   0.40555806   0.35628373 
H   -1.06511620   2.60348217  -1.33027622 
H   -2.53616972   2.77851015  -0.42389441 
H   -2.46867438   1.64536818  -1.77421845 
*
