! EnGrad PBEh-3c
%output 
xyzfile=True 
end 
%scf 
maxiter 250 
end
%output
Print[P_Hirshfeld] = 1
end
% maxcore
4000
*xyz 0 1
Lu  -0.03960481  -0.01912462   0.06957866 
C    0.45421403   0.76952845   2.52186957 
C    1.48778811  -0.15896371   2.23892810 
C    2.33112065   0.40608226   1.26559679 
C    1.82342550   1.68624814   0.94424429 
C    0.67765263   1.91531264   1.73578906 
H    2.25926338   2.38969760   0.25434668 
H    0.08101880   2.81536700   1.75051589 
H   -0.27180859   0.67129355   3.30625161 
H    1.58488443  -1.13591969   2.68167136 
H    3.24878691  -0.01877644   0.90342113 
C    0.89361413  -0.09332053  -2.41229562 
C   -0.36624301  -0.73188066  -2.41473606 
C    1.07703613  -2.03414545  -1.22552437 
C    1.78871656  -0.90960718  -1.69214407 
H    1.12047491   0.83898832  -2.90714406 
C   -0.25078550  -1.92985446  -1.68785703 
H   -1.24612495  -0.41049629  -2.95733971 
H    2.84490119  -0.73812096  -1.57340745 
H    1.49254874  -2.86370200  -0.67542670 
H   -1.03540016  -2.66110213  -1.54998798 
C   -2.21503668  -1.55892039   1.22916514 
H   -2.25841019  -1.35586648   2.29128001 
H   -1.93812849  -2.66010279   1.14008239 
H   -3.19332234  -1.50853032   0.81168396 
C   -1.96945963   1.98608702  -0.89192315 
H   -2.28873155   0.40246769   0.30054275 
H   -1.05793801   2.54591757  -1.29108418 
H   -2.54922667   2.74459319  -0.38556211 
H   -2.48696662   1.62056856  -1.76339894 
*
