! EnGrad PBEh-3c
%output 
xyzfile=True 
end 
%scf 
maxiter 250 
end
%output
Print[P_Hirshfeld] = 1
end
% maxcore
4000
*xyz 0 1
Lu  -0.05152122  -0.02128986   0.07354660 
C    0.45673091   0.76978756   2.52275988 
C    1.48429404  -0.15798534   2.23757980 
C    2.32635865   0.40637257   1.26381944 
C    1.82144222   1.68463417   0.94150777 
C    0.67809029   1.91524374   1.73542477 
H    2.26108219   2.38935615   0.25516932 
H    0.08011777   2.81627796   1.74895832 
H   -0.27637267   0.67011518   3.30290860 
H    1.58553616  -1.13590000   2.68273724 
H    3.24903030  -0.02098203   0.90093493 
C    0.89307808  -0.09249417  -2.40988086 
C   -0.36716575  -0.73277324  -2.41785379 
C    1.07652152  -2.03203017  -1.22462566 
C    1.78632425  -0.90691793  -1.68840321 
H    1.12286619   0.83847752  -2.90854826 
C   -0.25234155  -1.93098307  -1.69025782 
H   -1.24648911  -0.40764896  -2.95482237 
H    2.84534376  -0.73686199  -1.57195105 
H    1.49238018  -2.86374939  -0.67414664 
H   -1.03541795  -2.65913164  -1.54783444 
C   -2.20519929  -1.55847349   1.22401031 
H   -2.25856659  -1.35075679   2.29277182 
H   -1.92820618  -2.63852593   1.13272311 
H   -3.20899425  -1.50502645   0.81134669 
C   -1.95891453   1.97567171  -0.88554643 
H   -2.26186148   0.40920181   0.28502208 
H   -1.06336898   2.52643576  -1.27713368 
H   -2.55368362   2.73887610  -0.37732432 
H   -2.49257485   1.61522090  -1.76349372 
*
