! EnGrad PBEh-3c
%output 
xyzfile=True 
end 
%scf 
maxiter 250 
end
%output
Print[P_Hirshfeld] = 1
end
% maxcore
4000
*xyz 0 1
Lu  -0.03979763  -0.02121585   0.07299224 
C    0.45534917   0.77067608   2.52552304 
C    1.47929140  -0.16167522   2.23399604 
C    2.32638330   0.40740020   1.26480051 
C    1.82055379   1.68655320   0.93843980 
C    0.67524466   1.91332640   1.73139916 
H    2.26233251   2.38901193   0.25521239 
H    0.08170440   2.81758588   1.74898525 
H   -0.27740985   0.67077642   3.30218236 
H    1.58540883  -1.13526440   2.68329607 
H    3.24775015  -0.02211495   0.89971947 
C    0.89123410  -0.09112934  -2.40883681 
C   -0.36843695  -0.73303931  -2.41676958 
C    1.07507079  -2.03097752  -1.22383682 
C    1.78669399  -0.90622405  -1.68858625 
H    1.12461248   0.83795396  -2.90902665 
C   -0.25453353  -1.92886050  -1.68907077 
H   -1.24525709  -0.40702517  -2.95591623 
H    2.84503303  -0.73622421  -1.57019643 
H    1.49201765  -2.86320622  -0.67335683 
H   -1.03545773  -2.65879708  -1.54884494 
C   -2.19693494  -1.56055724   1.22132656 
H   -2.25853975  -1.34869314   2.29432982 
H   -1.92850710  -2.62575651   1.12957342 
H   -3.21712428  -1.50422978   0.81086889 
C   -1.94784990   1.96980781  -0.88208360 
H   -2.25876693   0.41086104   0.28065847 
H   -1.07060377   2.51743082  -1.27070202 
H   -2.55498374   2.73525690  -0.37344616 
H   -2.49541824   1.61250262  -1.76300361 
*
