! EnGrad PBEh-3c
%output 
xyzfile=True 
end 
%scf 
maxiter 250 
end
%output
Print[P_Hirshfeld] = 1
end
% maxcore
4000
*xyz 0 1
Lu  -0.07044210  -0.01907442   0.07453842 
C    0.45389387   0.78772599   2.52369188 
C    1.46244837  -0.16002115   2.22358984 
C    2.31413200   0.40077668   1.25183824 
C    1.81873031   1.68173081   0.92686281 
C    0.67736171   1.92608815   1.72540730 
H    2.28772078   2.39020029   0.26158622 
H    0.08858125   2.83019274   1.73390714 
H   -0.30476508   0.67940039   3.27720883 
H    1.57326752  -1.12877986   2.68390896 
H    3.23359142  -0.03457746   0.89222047 
C    0.89513521  -0.08314157  -2.40727579 
C   -0.36203374  -0.72896662  -2.43723240 
C    1.06653253  -2.02060607  -1.21575367 
C    1.78205506  -0.89354591  -1.67157429 
H    1.14949453   0.83088587  -2.92499896 
C   -0.25525138  -1.92249450  -1.70240975 
H   -1.24294197  -0.38271641  -2.95773568 
H    2.84414948  -0.73204197  -1.55913732 
H    1.48015887  -2.85286723  -0.66368991 
H   -1.04296788  -2.64295955  -1.54498067 
C   -2.23569880  -1.49389803   1.20104525 
H   -2.25120163  -1.33554421   2.28505351 
H   -1.88167514  -2.54752377   1.07480062 
H   -3.26381129  -1.48770477   0.85323544 
C   -1.97012377   1.88029727  -0.82862185 
H   -2.11353725   0.40696424   0.20768120 
H   -1.07023188   2.43045777  -1.21169571 
H   -2.55063957   2.65079542  -0.32106133 
H   -2.50949689   1.57736862  -1.72057405 
*
