! EnGrad PBEh-3c
%output 
xyzfile=True 
end 
%scf 
maxiter 250 
end
%output
Print[P_Hirshfeld] = 1
end
% maxcore
4000
*xyz -1 1
Pt  -0.48817049  -0.69946648   0.35557701 
Cl  -0.06234441  -0.18906958   2.58180813 
Cl  -2.54731724  -1.89331735   1.09814778 
Cl  -1.16932449  -1.23409616  -1.82213473 
C    0.70570841   0.93320972  -0.46592584 
H    1.37361030   1.49031390   0.22764214 
H    0.99598054  -0.73234316   0.15815071 
H    1.29047410   0.73208038  -1.38847500 
H   -0.09954539   1.59255431  -0.74359090 
*
