! EnGrad PBEh-3c
%output 
xyzfile=True 
end 
%scf 
maxiter 250 
end
%output
Print[P_Hirshfeld] = 1
end
% maxcore
4000
*xyz -1 1
Pt  -0.50091237  -0.69742570   0.35618074 
Cl  -0.06170289  -0.19007433   2.58130270 
Cl  -2.53736809  -1.88985699   1.09549938 
Cl  -1.16776830  -1.23207046  -1.82038469 
C    0.71192917   0.93155066  -0.46520598 
H    1.36863910   1.48515109   0.22564146 
H    1.00075423  -0.73028739   0.15702814 
H    1.28788029   0.72893981  -1.38266820 
H   -0.10243294   1.59352550  -0.74632770 
*
