! EnGrad PBEh-3c
%output 
xyzfile=True 
end 
%scf 
maxiter 250 
end
%output
Print[P_Hirshfeld] = 1
end
% maxcore
4000
*xyz -1 1
Pt  -0.55101585  -0.68568937   0.36240514 
Cl  -0.07310987  -0.21662918   2.58822917 
Cl  -2.46385896  -1.87974694   1.07787830 
Cl  -1.18406746  -1.20640878  -1.80298805 
C    0.71616284   0.91416583  -0.46520801 
H    1.35072216   1.47056098   0.21851132 
H    0.99668851  -0.65815530   0.15311093 
H    1.30249389   0.69345271  -1.35561232 
H   -0.09586083   1.56450846  -0.77565718 
*
