! EnGrad PBEh-3c
%output 
xyzfile=True 
end 
%scf 
maxiter 250 
end
%output
Print[P_Hirshfeld] = 1
end
% maxcore
4000
*xyz -1 1
Pt  -0.54189811  -0.68438745   0.36265410 
Cl  -0.07201525  -0.21507842   2.58843424 
Cl  -2.46443931  -1.87933047   1.07837460 
Cl  -1.18279221  -1.20675484  -1.80596259 
C    0.71375145   0.91081073  -0.46415891 
H    1.35152017   1.46981364   0.22208481 
H    0.98851381  -0.65565708   0.15140491 
H    1.30244101   0.69169817  -1.35708359 
H   -0.09701693   1.56471371  -0.77511895 
*
