! EnGrad PBEh-3c
%output 
xyzfile=True 
end 
%scf 
maxiter 250 
end
%output
Print[P_Hirshfeld] = 1
end
% maxcore
4000
*xyz -1 1
Pt  -0.54448646  -0.68269781   0.36443734 
Cl  -0.07100026  -0.21526903   2.58933818 
Cl  -2.45791586  -1.87763382   1.07731827 
Cl  -1.18179377  -1.20485303  -1.80795746 
C    0.71296726   0.90706760  -0.46304638 
H    1.35006063   1.46658402   0.22506021 
H    0.98448988  -0.64645863   0.14781339 
H    1.30309422   0.68645935  -1.35573929 
H   -0.09753172   1.56196650  -0.77673533 
*
