! EnGrad PBEh-3c
%output 
xyzfile=True 
end 
%scf 
maxiter 250 
end
%output
Print[P_Hirshfeld] = 1
end
% maxcore
4000
*xyz 0 1
Pd   0.42721613   0.25401939  -0.34543880 
O    2.00964854   1.38823769   0.61753795 
C    1.75348586   2.55537761   0.30635371 
O    0.62113772   2.82217813  -0.23781840 
C    2.70934046   3.66838269   0.59551441 
H    2.21741870   4.54176542   1.02036147 
H    3.16362466   3.98554256  -0.34530257 
H    3.50286581   3.34677365   1.26490300 
N   -1.35763881  -0.71030098  -0.99661704 
C   -1.23061695  -1.75317245  -2.03524588 
H   -0.78099590  -1.41256876  -2.96309032 
H   -2.19913169  -2.12282625  -2.41257793 
H   -0.62515591  -2.56850419  -1.65683388 
C   -2.11406612   0.35373775  -1.67587978 
H   -2.23430159   1.21156061  -1.02746112 
H   -3.11879696   0.03941527  -1.98829414 
H   -1.62621409   0.72250959  -2.57372882 
C   -1.52966934  -1.05136333   1.41895203 
C   -1.11316988  -2.09558850   2.23798413 
C   -1.00308653  -1.96039621   3.60964991 
C   -1.06501765  -0.70515726   4.17263370 
C   -1.51900872   0.34676281   3.39261910 
C   -1.75212237   0.18133845   2.03640879 
H   -0.88969515  -0.57556638   5.23404683 
H   -1.68392388   1.27816048   3.92137521 
H   -1.23212558  -3.12539528   1.91353689 
H   -0.89286579  -2.82518441   4.25213482 
H   -2.25259384   3.30714470   1.43174369 
C   -2.18821253  -1.28420091   0.09137172 
H   -3.21090918  -0.88065839   0.15399863 
H   -2.40518841  -2.35534479  -0.00134206 
O    1.92069041  -0.56639255  -1.28784552 
C    2.28192604  -0.44830198  -2.51244050 
O    1.47577417  -0.30762475  -3.40964198 
C    3.69735582  -0.74519510  -2.96954409 
H    3.80495583  -1.81419254  -3.15193229 
H    4.44780651  -0.50254283  -2.21620326 
H    3.99125505  -0.19242894  -3.86387279 
*
