! EnGrad PBEh-3c
%output 
xyzfile=True 
end 
%scf 
maxiter 250 
end
%output
Print[P_Hirshfeld] = 1
end
% maxcore
4000
*xyz 0 1
Pd   0.51887999   0.28659111  -0.28955139 
O    1.93614188   1.32108470   0.52878181 
C    1.67932865   2.56873840   0.28395191 
O    0.58311185   2.85992192  -0.23091610 
C    2.68893818   3.61997085   0.59509176 
H    2.20693717   4.51053315   1.01293875 
H    3.15486431   3.96434018  -0.33484130 
H    3.49832153   3.32777351   1.26221863 
N   -1.35623788  -0.69921683  -1.02974877 
C   -1.21315065  -1.76101388  -2.06459883 
H   -0.69396382  -1.36388858  -2.94590618 
H   -2.21016033  -2.16134596  -2.36225674 
H   -0.62484655  -2.59197371  -1.66882114 
C   -2.13016370   0.39363659  -1.67648904 
H   -2.24691751   1.23019530  -0.99226227 
H   -3.13841959   0.04516665  -1.98379327 
H   -1.59103158   0.72646252  -2.56847684 
C   -1.61216860  -1.06817417   1.44103238 
C   -1.22930042  -2.14389840   2.26465852 
C   -0.98799531  -1.95190394   3.61471437 
C   -1.10201893  -0.70399746   4.19645676 
C   -1.48655650   0.41027856   3.43992910 
C   -1.66075339   0.16870084   2.10180062 
H   -0.91955888  -0.55886618   5.24654305 
H   -1.67289159   1.37941012   3.88976688 
H   -1.18195116  -3.12640524   1.82209888 
H   -0.80320752  -2.81770910   4.22878863 
H   -2.23996191   3.20700936   1.44122715 
C   -2.16637285  -1.26941753   0.07192109 
H   -3.17141181  -0.83031942   0.08395669 
H   -2.30368086  -2.34254774  -0.05537122 
O    2.00179023  -0.61830993  -1.28882003 
C    2.24443542  -0.48890614  -2.55300168 
O    1.40690608  -0.23536239  -3.39684265 
C    3.68750449  -0.75689989  -2.92603552 
H    3.80790494  -1.81550102  -3.15503024 
H    4.41681159  -0.50291657  -2.15772180 
H    3.93156443  -0.21836156  -3.83796936 
*
