! EnGrad PBEh-3c
%output 
xyzfile=True 
end 
%scf 
maxiter 250 
end
%output
Print[P_Hirshfeld] = 1
end
% maxcore
4000
*xyz 0 1
Pd   0.51679221   0.27578528  -0.30002573 
O    1.94674641   1.28104223   0.50822022 
C    1.64523700   2.59637770   0.26841720 
O    0.54642668   2.88492799  -0.23378076 
C    2.69697160   3.61605297   0.59590364 
H    2.20327288   4.48360632   1.00833209 
H    3.14434472   3.94199222  -0.32275316 
H    3.48779927   3.30838757   1.25917675 
N   -1.33980936  -0.69791050  -1.06303790 
C   -1.19832075  -1.76242614  -2.06122682 
H   -0.66832842  -1.36452257  -2.91864688 
H   -2.19195344  -2.17157915  -2.33946915 
H   -0.62832914  -2.59437276  -1.66739011 
C   -2.12681043   0.40725447  -1.67591985 
H   -2.24893251   1.22834650  -0.99409256 
H   -3.12755156   0.05112858  -1.98372048 
H   -1.58003710   0.72317376  -2.56002064 
C   -1.64587492  -1.02206517   1.45887878 
C   -1.27784326  -2.15473816   2.27292518 
C   -1.00716554  -1.96251340   3.62426087 
C   -1.11035800  -0.70060829   4.20630145 
C   -1.46715564   0.43745800   3.43913443 
C   -1.63505619   0.19546769   2.11721400 
H   -0.92970451  -0.55841491   5.26936440 
H   -1.63921934   1.40346431   3.86744778 
H   -1.18335650  -3.13457384   1.79438992 
H   -0.76774599  -2.81203609   4.22549258 
H   -2.21515133   3.11293217   1.44231023 
C   -2.16107577  -1.26620253   0.09060421 
H   -3.15708235  -0.80560278   0.04777928 
H   -2.27319538  -2.32860109  -0.08412497 
O    2.02071771  -0.63414065  -1.26311671 
C    2.22744014  -0.49414454  -2.55967841 
O    1.37847928  -0.22314333  -3.39777190 
C    3.70000359  -0.75308351  -2.91129767 
H    3.81895996  -1.81457487  -3.16282959 
H    4.37431409  -0.49661086  -2.15080982 
H    3.90553024  -0.20895452  -3.83564223 
*
