! EnGrad PBEh-3c
%output 
xyzfile=True 
end 
%scf 
maxiter 250 
end
%output
Print[P_Hirshfeld] = 1
end
% maxcore
4000
*xyz 0 1
Pd   0.51807500   0.28242465  -0.29359003 
O    1.94023072   1.30564531   0.52085377 
C    1.66618375   2.57939543   0.27796211 
O    0.56896695   2.86956364  -0.23202065 
C    2.69203567   3.61846021   0.59540480 
H    2.20552431   4.50015083   1.01116253 
H    3.15080822   3.95572336  -0.33018041 
H    3.49426440   3.32029877   1.26104576 
N   -1.34990345  -0.69871314  -1.04258424 
C   -1.20743261  -1.76155841  -2.06329867 
H   -0.68407944  -1.36413303  -2.93539567 
H   -2.20314020  -2.16529163  -2.35347041 
H   -0.62618935  -2.59289873  -1.66826937 
C   -2.12887076   0.39888730  -1.67626958 
H   -2.24769444   1.22948245  -0.99296798 
H   -3.13422915   0.04746542  -1.98376521 
H   -1.58679238   0.72519445  -2.56521634 
C   -1.62516493  -1.05039567   1.44791351 
C   -1.24801734  -2.14807794   2.26784594 
C   -0.99538688  -1.95599469   3.61839526 
C   -1.10523427  -0.70269068   4.20025263 
C   -1.47907601   0.42075828   3.43962270 
C   -1.65084518   0.17902148   2.10774364 
H   -0.92347079  -0.55869218   5.25534240 
H   -1.65990840   1.38868482   3.88116118 
H   -1.18249302  -3.12955485   1.81141499 
H   -0.78953443  -2.81552173   4.22751775 
H   -2.23039556   3.17073552   1.44164476 
C   -2.16433043  -1.26817790   0.07912484 
H   -3.16588672  -0.82078929   0.07000757 
H   -2.29192641  -2.33717025  -0.06645796 
O    2.00908820  -0.62441386  -1.27890946 
C    2.23788246  -0.49092594  -2.55557606 
O    1.39594541  -0.23065102  -3.39720095 
C    3.69232383  -0.75542838  -2.92035297 
H    3.81216748  -1.81514392  -3.15803748 
H    4.40042560  -0.50048524  -2.15505671 
H    3.92152629  -0.21473444  -3.83707208 
*
