! EnGrad PBEh-3c
%output 
xyzfile=True 
end 
%scf 
maxiter 250 
end
%output
Print[P_Hirshfeld] = 1
end
% maxcore
4000
*xyz 0 1
Pd   0.51748959   0.27724275  -0.29862521 
O    1.94154928   1.29973538   0.50946744 
C    1.64869187   2.58143998   0.27046005 
O    0.55941385   2.87882051  -0.22973676 
C    2.69268016   3.61540463   0.59599673 
H    2.20372015   4.48967019   1.00970492 
H    3.14726977   3.94670862  -0.32675766 
H    3.49017595   3.31106964   1.26032593 
N   -1.34407795  -0.69733493  -1.05165580 
C   -1.20200670  -1.76211061  -2.06211865 
H   -0.67250269  -1.36415444  -2.92495629 
H   -2.19519196  -2.16948645  -2.34422587 
H   -0.62677289  -2.59436395  -1.66727856 
C   -2.12656374   0.40218169  -1.67735318 
H   -2.24851877   1.22994759  -0.99238449 
H   -3.12964980   0.05031536  -1.98371902 
H   -1.58209888   0.72482125  -2.56201079 
C   -1.63745804  -1.03588906   1.45850534 
C   -1.26915701  -2.14892796   2.26986810 
C   -1.00426863  -1.95856914   3.62101406 
C   -1.10925527  -0.69974808   4.20434686 
C   -1.46953779   0.42892078   3.44160635 
C   -1.64083551   0.19022344   2.11192343 
H   -0.92820523  -0.55863743   5.26422078 
H   -1.64545288   1.40117076   3.87258328 
H   -1.18307897  -3.13188312   1.79963330 
H   -0.77338548  -2.81400489   4.22685939 
H   -2.21962272   3.12895504   1.44234574 
C   -2.16142441  -1.26361518   0.08259934 
H   -3.15958785  -0.81079747   0.05399664 
H   -2.27838075  -2.33181235  -0.07817423 
O    2.01680089  -0.63132181  -1.27249423 
C    2.22988554  -0.49319936  -2.55567378 
O    1.38599432  -0.22556776  -3.39450655 
C    3.69177572  -0.75546883  -2.91904567 
H    3.81698745  -1.81423130  -3.16077068 
H    4.38493426  -0.49681646  -2.14853220 
H    3.91068617  -0.21113662  -3.83520349 
*
