! EnGrad PBEh-3c
%output 
xyzfile=True 
end 
%scf 
maxiter 250 
end
%output
Print[P_Hirshfeld] = 1
end
% maxcore
4000
*xyz 0 1
Pd   0.50185047   0.25846704  -0.32244031 
O    1.95331805   1.28293231   0.47283190 
C    1.59751305   2.59182120   0.24944607 
O    0.52369132   2.90732106  -0.22254726 
C    2.68751342   3.60153655   0.59617975 
H    2.19444307   4.45852962   1.00833044 
H    3.13829118   3.91681286  -0.32254640 
H    3.47531289   3.27325936   1.26006678 
N   -1.33067208  -0.69325003  -1.08288431 
C   -1.18254911  -1.76635976  -2.05836260 
H   -0.63780207  -1.36639945  -2.89093688 
H   -2.16118356  -2.17467839  -2.31571715 
H   -0.62478102  -2.59698563  -1.66145346 
C   -2.11467271   0.41079287  -1.68164371 
H   -2.24973348   1.23244126  -0.98955321 
H   -3.10647542   0.06006783  -1.98177667 
H   -1.56768837   0.72818217  -2.55186516 
C   -1.67570204  -0.97437878   1.49564819 
C   -1.33305637  -2.14197527   2.27397470 
C   -1.03554934  -1.96427846   3.62744103 
C   -1.12425871  -0.68930778   4.21833755 
C   -1.43750159   0.45348486   3.44225484 
C   -1.61749241   0.23605552   2.11911817 
H   -0.94457405  -0.56129459   5.29221852 
H   -1.59114288   1.43585250   3.84578601 
H   -1.18884276  -3.12903550   1.76852857 
H   -0.71702002  -2.80872091   4.22617071 
H   -2.17831418   2.95393154   1.44665544 
C   -2.14926206  -1.24448586   0.09662128 
H   -3.13780374  -0.78297725  -0.00175776 
H   -2.23456598  -2.31231378  -0.11533535 
O    2.03834840  -0.65805663  -1.24594735 
C    2.19945290  -0.50256113  -2.55081912 
O    1.35658481  -0.20590669  -3.38410254 
C    3.68094461  -0.75795215  -2.92106740 
H    3.83198121  -1.81412346  -3.16776819 
H    4.33438381  -0.48339135  -2.12349650 
H    3.87854805  -0.19655981  -3.83177339 
*
