! EnGrad PBEh-3c
%output 
xyzfile=True 
end 
%scf 
maxiter 250 
end
%output
Print[P_Hirshfeld] = 1
end
% maxcore
4000
*xyz 0 1
Pd   0.51101801   0.26947323  -0.30848007 
O    1.94641928   1.29278214   0.49430739 
C    1.62751371   2.58573580   0.26176431 
O    0.54463161   2.89061424  -0.22676169 
C    2.69054212   3.60966592   0.59607246 
H    2.19988123   4.47678399   1.00913615 
H    3.14355436   3.93433754  -0.32501501 
H    3.48402551   3.29542348   1.26021869 
N   -1.33853050  -0.69564457  -1.06457838 
C   -1.19395501  -1.76386894  -2.06056437 
H   -0.65814332  -1.36508344  -2.91087882 
H   -2.18111904  -2.17163491  -2.33242876 
H   -0.62594864  -2.59544882  -1.66486809 
C   -2.12164315   0.40574505  -1.67912863 
H   -2.24902143   1.23097949  -0.99121288 
H   -3.12006007   0.05435100  -1.98291526 
H   -1.57613570   0.72621202  -2.55781246 
C   -1.65328368  -1.01043566   1.47387532 
C   -1.29559903  -2.14605089   2.27156744 
C   -1.01721281  -1.96093170   3.62367359 
C   -1.11546380  -0.69542781   4.21013631 
C   -1.45628098   0.43908557   3.44187470 
C   -1.63117597   0.20918909   2.11490067 
H   -0.93497877  -0.55973699   5.27580645 
H   -1.62297901   1.41552231   3.86149438 
H   -1.18546406  -3.13070475   1.78676194 
H   -0.75006105  -2.81181834   4.22657441 
H   -2.20252895   3.05652905   1.44412912 
C   -2.15639154  -1.25569933   0.08840172 
H   -3.15057342  -0.79928526   0.03092507 
H   -2.26024988  -2.32374370  -0.09355177 
O    2.02571740  -0.64238487  -1.26150894 
C    2.21729230  -0.49707333  -2.55366488 
O    1.37382446  -0.21743187  -3.39020129 
C    3.68729373  -0.75649644  -2.91988228 
H    3.82319198  -1.81418667  -3.16366630 
H    4.36401612  -0.49126105  -2.13817225 
H    3.89738719  -0.20510463  -3.83378409 
*
