! EnGrad PBEh-3c
%output 
xyzfile=True 
end 
%scf 
maxiter 250 
end
%output
Print[P_Hirshfeld] = 1
end
% maxcore
4000
*xyz 0 1
Pd   0.49818501   0.25920435  -0.32488397 
O    1.94779791   1.30046956   0.47004736 
C    1.60423097   2.57847900   0.25264746 
O    0.52924945   2.90215955  -0.21885098 
C    2.68149749   3.59850628   0.59540554 
H    2.19275803   4.46406532   1.01139538 
H    3.14117140   3.91848955  -0.32839349 
H    3.47393088   3.26941911   1.26099547 
N   -1.33405915  -0.69223832  -1.07099238 
C   -1.18270845  -1.76623032  -2.05698642 
H   -0.63972344  -1.36749303  -2.89643833 
H   -2.16084057  -2.17055904  -2.32038044 
H   -0.62024012  -2.59704869  -1.65822207 
C   -2.11125776   0.40753253  -1.68204765 
H   -2.24794431   1.23322550  -0.98850123 
H   -3.10454112   0.05939433  -1.98195075 
H   -1.56802562   0.73270016  -2.55492039 
C   -1.67026523  -0.98343338   1.49108464 
C   -1.32578173  -2.13092291   2.27264225 
C   -1.03551663  -1.95997814   3.62561384 
C   -1.12491067  -0.68822505   4.21625871 
C   -1.43677334   0.44708271   3.44533512 
C   -1.62615247   0.24389196   2.11301330 
H   -0.94486979  -0.56288621   5.28798617 
H   -1.58827262   1.43315610   3.84989166 
H   -1.19293742  -3.11864616   1.77555242 
H   -0.71854389  -2.80777159   4.22615048 
H   -2.17515114   2.93304210   1.44812316 
C   -2.14765696  -1.23910985   0.08947075 
H   -3.13871552  -0.78797732  -0.00093150 
H   -2.23682763  -2.31104123  -0.10972169 
O    2.03122731  -0.65845812  -1.25315073 
C    2.20117795  -0.50442230  -2.54386476 
O    1.36125392  -0.20628077  -3.37845117 
C    3.67118116  -0.75932968  -2.92650802 
H    3.83076414  -1.81475451  -3.16597828 
H    4.33752483  -0.48254391  -2.12189841 
H    3.88220130  -0.19560388  -3.83254883 
*
