! EnGrad PBEh-3c
%output 
xyzfile=True 
end 
%scf 
maxiter 250 
end
%output
Print[P_Hirshfeld] = 1
end
% maxcore
4000
*xyz 0 1
Pd   0.45273121   0.29794800  -0.30342054 
O    2.00928957   1.30614006   0.60538040 
C    1.69368113   2.59985139   0.29575208 
O    0.61887076   2.82777122  -0.24328132 
C    2.71715390   3.66701239   0.59385401 
H    2.21042261   4.53705580   1.01855934 
H    3.16312312   3.98670810  -0.34548782 
H    3.50493024   3.34707352   1.26508546 
N   -1.38410697  -0.72160082  -1.06190814 
C   -1.22215577  -1.76708976  -2.06569547 
H   -0.76166692  -1.38464156  -2.95826762 
H   -2.20181815  -2.11811489  -2.39203594 
H   -0.62495349  -2.57199763  -1.66693494 
C   -2.13165479   0.38715753  -1.67523920 
H   -2.24024711   1.22116098  -1.00812500 
H   -3.11822415   0.03585718  -1.97751152 
H   -1.61695576   0.72394337  -2.56857843 
C   -1.56712841  -1.01451983   1.42349333 
C   -1.14316255  -2.11615828   2.25175325 
C   -0.96815319  -1.95682893   3.60605372 
C   -1.08962522  -0.71079692   4.17395835 
C   -1.52090394   0.38431350   3.39161841 
C   -1.72463008   0.17665153   2.07596763 
H   -0.89656111  -0.56888356   5.23164737 
H   -1.69799402   1.28723571   3.91146294 
H   -1.19870435  -3.12264594   1.88696211 
H   -0.86588212  -2.82536157   4.24172628 
H   -2.25725270   3.25385005   1.43900806 
C   -2.17872793  -1.29371137   0.11215377 
H   -3.19400407  -0.87487458   0.13925285 
H   -2.37167809  -2.35909328  -0.01922042 
O    1.97302265  -0.59845537  -1.25614468 
C    2.24318069  -0.47334681  -2.54788733 
O    1.44941850  -0.26096826  -3.43283170 
C    3.71956578  -0.74884763  -2.93042255 
H    3.79224245  -1.82516166  -3.14730102 
H    4.45141494  -0.51390536  -2.20150620 
H    3.97988643  -0.21260934  -3.85942191 
*
