! EnGrad PBEh-3c
%output 
xyzfile=True 
end 
%scf 
maxiter 250 
end
%output
Print[P_Hirshfeld] = 1
end
% maxcore
4000
*xyz 0 1
Pd   0.46517672   0.30734764  -0.29169912 
O    1.99840096   1.30535306   0.59406857 
C    1.70148531   2.58478943   0.30591912 
O    0.60144467   2.83513102  -0.25173729 
C    2.71449163   3.66677026   0.59335678 
H    2.20922867   4.53559623   1.01783854 
H    3.16328532   3.98718770  -0.34617384 
H    3.50546662   3.34600524   1.26537515 
N   -1.39022339  -0.72160280  -1.07061170 
C   -1.22187908  -1.76906187  -2.07429192 
H   -0.75405993  -1.37549510  -2.95890378 
H   -2.20364970  -2.11843096  -2.38706523 
H   -0.62407423  -2.57397314  -1.67029466 
C   -2.13544105   0.39136694  -1.67730920 
H   -2.24234833   1.22634264  -0.99984714 
H   -3.11995987   0.03617453  -1.97474479 
H   -1.61433028   0.72582276  -2.56712770 
C   -1.57277530  -1.01580191   1.43426178 
C   -1.15406398  -2.11268059   2.25055677 
C   -0.95917351  -1.95679831   3.60466465 
C   -1.09748717  -0.70623948   4.17377097 
C   -1.51920422   0.38638742   3.39611772 
C   -1.71631947   0.16890618   2.08236595 
H   -0.89943157  -0.56694924   5.23082636 
H   -1.70387902   1.29691679   3.91100763 
H   -1.18755817  -3.12405794   1.87674503 
H   -0.85535502  -2.82513931   4.23865863 
H   -2.25966348   3.24469557   1.44159458 
C   -2.17730987  -1.29254381   0.10823615 
H   -3.18854692  -0.87340435   0.13363736 
H   -2.35968845  -2.36087787  -0.02418750 
O    1.98650280  -0.60700658  -1.25741257 
C    2.23839571  -0.48124331  -2.54539984 
O    1.43926538  -0.24647117  -3.43924536 
C    3.71651772  -0.75344162  -2.92838699 
H    3.78913721  -1.82710615  -3.14486625 
H    4.45576839  -0.51596287  -2.19105486 
H    3.97582941  -0.22049753  -3.85547896 
*
