! EnGrad PBEh-3c
%output 
xyzfile=True 
end 
%scf 
maxiter 250 
end
%output
Print[P_Hirshfeld] = 1
end
% maxcore
4000
*xyz 0 1
Pd   0.49165278   0.30120840  -0.28812001 
O    1.95302400   1.39769464   0.55686019 
C    1.63535097   2.49905189   0.27615800 
O    0.67655265   2.82472773  -0.20419695 
C    2.70191008   3.65620344   0.59869811 
H    2.21002354   4.53222203   1.01641611 
H    3.16430675   3.98483666  -0.34815670 
H    3.50549476   3.34180062   1.26513469 
N   -1.38323315  -0.70718574  -1.02761626 
C   -1.22675269  -1.76438476  -2.07444229 
H   -0.73306351  -1.36841238  -2.96479052 
H   -2.21161313  -2.13437959  -2.38392156 
H   -0.62098510  -2.58283284  -1.66996691 
C   -2.13129346   0.37569252  -1.68466485 
H   -2.24450100   1.23586407  -0.98889882 
H   -3.13219387   0.04026574  -1.97799959 
H   -1.60827806   0.73011306  -2.56963974 
C   -1.56584641  -1.07250189   1.46673248 
C   -1.17793178  -2.09685928   2.23889885 
C   -0.96666503  -1.95003570   3.60082055 
C   -1.10012488  -0.69187550   4.17936903 
C   -1.50666539   0.36806949   3.41567449 
C   -1.69765555   0.12854833   2.07409517 
H   -0.90606822  -0.56378665   5.23006619 
H   -1.70403550   1.34253583   3.91591134 
H   -1.18170951  -3.12799429   1.85821999 
H   -0.83955291  -2.82680956   4.23817686 
H   -2.26259169   3.27922827   1.44158679 
C   -2.17753775  -1.27369691   0.06856415 
H   -3.18380685  -0.86409894   0.12077624 
H   -2.34177149  -2.36103863  -0.02852349 
O    1.99065199  -0.60887902  -1.29928135 
C    2.23360053  -0.48026544  -2.53653752 
O    1.44629866  -0.24595461  -3.40614883 
C    3.68258623  -0.76369652  -2.95332080 
H    3.79396835  -1.81928368  -3.14423380 
H    4.46220633  -0.50940439  -2.16460271 
H    3.96454144  -0.22632151  -3.84301361 
*
