! EnGrad PBEh-3c
%output 
xyzfile=True 
end 
%scf 
maxiter 250 
end
%output
Print[P_Hirshfeld] = 1
end
% maxcore
4000
*xyz 0 1
Pd   0.47813915   0.30434193  -0.28994682 
O    1.97618484   1.35056261   0.57585171 
C    1.66910657   2.54281316   0.29134836 
O    0.63821681   2.83003767  -0.22846200 
C    2.70833183   3.66159684   0.59597184 
H    2.20961783   4.53394425   1.01714213 
H    3.16378540   3.98603665  -0.34714463 
H    3.50548040   3.34394670   1.26525742 
N   -1.38680103  -0.71454435  -1.04956155 
C   -1.22426515  -1.76677200  -2.07436554 
H   -0.74378028  -1.37202747  -2.96178587 
H   -2.20754852  -2.12623926  -2.38552612 
H   -0.62256182  -2.57831077  -1.67013419 
C   -2.13341043   0.38369289  -1.68091046 
H   -2.24340226   1.23100424  -0.99448695 
H   -3.12594952   0.03817755  -1.97633831 
H   -1.61136717   0.72792325  -2.56835757 
C   -1.56938298  -1.04356167   1.45015913 
C   -1.16574942  -2.10493463   2.24484916 
C   -0.96284129  -1.95348741   3.60278262 
C   -1.09877857  -0.69920701   4.17651173 
C   -1.51306533   0.37741914   3.40569253 
C   -1.70718180   0.14914737   2.07831666 
H   -0.90268081  -0.56540087   5.23045419 
H   -1.70395563   1.31925143   3.91340844 
H   -1.18469473  -3.12598514   1.86767535 
H   -0.84761846  -2.82595705   4.23842276 
H   -2.26109710   3.26160245   1.44159077 
C   -2.17742144  -1.28331655   0.08881312 
H   -3.18622623  -0.86884851   0.12734068 
H   -2.35091648  -2.36095658  -0.02631036 
O    1.98853420  -0.60792331  -1.27791113 
C    2.23604804  -0.48076456  -2.54106093 
O    1.44270881  -0.24621827  -3.42304162 
C    3.69990519  -0.75846232  -2.94059435 
H    3.79150249  -1.82327635  -3.14455661 
H    4.45892035  -0.51275190  -2.17810414 
H    3.97030293  -0.22334890  -3.84937604 
*
