! EnGrad PBEh-3c
%output 
xyzfile=True 
end 
%scf 
maxiter 250 
end
%output
Print[P_Hirshfeld] = 1
end
% maxcore
4000
*xyz 0 1
Pd   0.48928677   0.30058516  -0.28871477 
O    1.96185340   1.35754398   0.56414046 
C    1.68043734   2.53581806   0.29441967 
O    0.62695984   2.83535731  -0.22953386 
C    2.70086215   3.65082895   0.59571157 
H    2.20934945   4.53191467   1.01688994 
H    3.16332875   3.98360919  -0.34632112 
H    3.50525532   3.34180101   1.26518592 
N   -1.38178955  -0.71066707  -1.03712368 
C   -1.22379609  -1.76502212  -2.07240488 
H   -0.73381439  -1.36970228  -2.96177674 
H   -2.21058390  -2.13405720  -2.38263538 
H   -0.62231192  -2.58179702  -1.66981711 
C   -2.13262331   0.38334021  -1.68060980 
H   -2.24406370   1.23162044  -0.99300537 
H   -3.13073572   0.03936810  -1.97830514 
H   -1.60752794   0.72839391  -2.56966308 
C   -1.57491549  -1.06041024   1.44604599 
C   -1.17637550  -2.11167849   2.24847660 
C   -0.96732580  -1.95032770   3.60357829 
C   -1.09892320  -0.70010942   4.17983243 
C   -1.50778582   0.38065816   3.41704031 
C   -1.69925710   0.15296788   2.08180125 
H   -0.90592276  -0.56374264   5.23137169 
H   -1.70022931   1.33250489   3.91027270 
H   -1.18374985  -3.12455705   1.85926188 
H   -0.84018872  -2.82527716   4.23688438 
H   -2.25868248   3.25840125   1.44144158 
C   -2.17452019  -1.27799529   0.07949289 
H   -3.18425949  -0.86222675   0.12053479 
H   -2.34236669  -2.35855409  -0.02985941 
O    1.98957062  -0.60846959  -1.28720259 
C    2.24025561  -0.48235414  -2.54070634 
O    1.43784301  -0.24503466  -3.41505147 
C    3.69223321  -0.75937030  -2.94124983 
H    3.79441608  -1.82099356  -3.14600198 
H    4.45479810  -0.51053558  -2.17199937 
H    3.96371855  -0.22351929  -3.84622560 
*
