! EnGrad PBEh-3c
%output 
xyzfile=True 
end 
%scf 
maxiter 250 
end
%output
Print[P_Hirshfeld] = 1
end
% maxcore
4000
*xyz 0 1
Pd   0.52842749   0.28702700  -0.28584522 
O    1.92252149   1.33387355   0.52715827 
C    1.68536527   2.56538718   0.28301014 
O    0.59847978   2.85177708  -0.22398466 
C    2.67848758   3.60954346   0.59477972 
H    2.20747826   4.51812468   1.01457921 
H    3.15835400   3.96976276  -0.33897852 
H    3.50209951   3.33212686   1.26354485 
N   -1.35794995  -0.69633768  -1.00556276 
C   -1.21788065  -1.75896840  -2.06396321 
H   -0.69345307  -1.36163925  -2.95520180 
H   -2.21855484  -2.16464322  -2.36734830 
H   -0.62312080  -2.59438493  -1.66882099 
C   -2.13026599   0.38812701  -1.67681298 
H   -2.24675187   1.23169211  -0.98996196 
H   -3.14601891   0.04432597  -1.98551949 
H   -1.59123341   0.72838653  -2.57260769 
C   -1.60586289  -1.09713228   1.43277440 
C   -1.22260917  -2.14647692   2.26478873 
C   -0.98604490  -1.94412424   3.61216430 
C   -1.09921613  -0.70656750   4.19675964 
C   -1.48793288   0.40366634   3.45092366 
C   -1.66270678   0.16315865   2.09784634 
H   -0.91932194  -0.55767353   5.23918366 
H   -1.68040096   1.38354647   3.89451450 
H   -1.18079069  -3.12130202   1.82411226 
H   -0.80786633  -2.81936481   4.22881304 
H   -2.24561622   3.23273721   1.44086466 
C   -2.16459561  -1.26450058   0.05545821 
H   -3.17438011  -0.83277288   0.08961678 
H   -2.30602956  -2.34512035  -0.04886105 
O    1.99619030  -0.61370980  -1.30635810 
C    2.25356145  -0.48855762  -2.55082461 
O    1.41320147  -0.23861825  -3.38770458 
C    3.67388806  -0.75937558  -2.93291245 
H    3.80691427  -1.81376026  -3.15355939 
H    4.42809284  -0.50263770  -2.15335933 
H    3.93447342  -0.22157316  -3.83581143 
*
