! EnGrad PBEh-3c
%output 
xyzfile=True 
end 
%scf 
maxiter 250 
end
%output
Print[P_Hirshfeld] = 1
end
% maxcore
4000
*xyz 0 1
Pd   0.50482100   0.29520418  -0.28757590 
O    1.94624329   1.34814962   0.54946291 
C    1.68239314   2.54755350   0.28989144 
O    0.61565663   2.84187402  -0.22733149 
C    2.69198210   3.63444350   0.59534174 
H    2.20860681   4.52644168   1.01597286 
H    3.16135436   3.97811380  -0.34340698 
H    3.50400284   3.33796152   1.26453461 
N   -1.37232805  -0.70498000  -1.02459774 
C   -1.22144836  -1.76261951  -2.06905454 
H   -0.71779572  -1.36650222  -2.95916727 
H   -2.21374742  -2.14619623  -2.37656822 
H   -0.62263295  -2.58679293  -1.66942177 
C   -2.13168774   0.38524000  -1.67910291 
H   -2.24513059   1.23164888  -0.99179750 
H   -3.13680134   0.04133579  -1.98116838 
H   -1.60106095   0.72839098  -2.57083174 
C   -1.58719794  -1.07498454   1.44077874 
C   -1.19472479  -2.12548935   2.25495058 
C   -0.97475506  -1.94786566   3.60698592 
C   -1.09903946  -0.70267251   4.18655053 
C   -1.49990655   0.38978968   3.43048799 
C   -1.68475095   0.15701241   2.08816925 
H   -0.91124064  -0.56133392   5.23447212 
H   -1.69235981   1.35276235   3.90401856 
H   -1.18257542  -3.12326519   1.84531164 
H   -0.82736056  -2.82293065   4.23368102 
H   -2.25349672   3.24821567   1.44121261 
C   -2.17058131  -1.27263948   0.06995397 
H   -3.18033855  -0.85053705   0.10826400 
H   -2.32794515  -2.35322249  -0.03740081 
O    1.99219785  -0.61054933  -1.29480506 
C    2.24553645  -0.48481619  -2.54472210 
O    1.42806324  -0.24248810  -3.40419799 
C    3.68495236  -0.75937240  -2.93794088 
H    3.79937638  -1.81812279  -3.14900138 
H    4.44419927  -0.50740105  -2.16460148 
H    3.95211170  -0.22274691  -3.84209241 
*
