! EnGrad PBEh-3c
%output 
xyzfile=True 
end 
%scf 
maxiter 250 
end
%output
Print[P_Hirshfeld] = 1
end
% maxcore
4000
*xyz 1 1
Sc   1.69360966  -1.41941127  -1.47841504 
C    0.40354407  -0.67249062   0.21917845 
N   -0.48669094  -1.39199324   0.92043899 
C   -0.85143499  -0.72613381   2.05199462 
C   -0.19772993   0.45418828   2.03626955 
N    0.59669041   0.45424468   0.93004033 
C    1.47598861   1.54688458   0.58277839 
H    1.76353262   2.15857391   1.43578682 
H    0.99405325   2.21490952  -0.12700362 
H    2.40136693   1.17892541   0.14480279 
C   -1.00929460  -2.69965155   0.57939695 
H   -0.52118617  -3.08317440  -0.31292187 
H   -2.07822158  -2.63671592   0.38691664 
H   -0.82869433  -3.39538590   1.39603553 
H   -1.54354869  -1.12628136   2.77234973 
H   -0.24465648   1.26108381   2.74616430 
C   -0.36203649   1.63049583  -2.80730293 
H   -1.07260291   1.35567800  -3.58949971 
H   -0.23446841   2.71377413  -2.86374633 
H   -0.81957127   1.36538965  -1.85678276 
H    0.92137406   0.81710466  -3.16648803 
*
