! EnGrad PBEh-3c
%output 
xyzfile=True 
end 
%scf 
maxiter 250 
end
%output
Print[P_Hirshfeld] = 1
end
% maxcore
4000
*xyz 1 1
Sc   1.71267351  -1.40276867  -1.46960219 
C    0.43646657  -0.67591400   0.23673433 
N   -0.47868850  -1.38788209   0.92108068 
C   -0.86663573  -0.72387204   2.05133808 
C   -0.18632163   0.44831211   2.06284452 
N    0.59201420   0.46464702   0.93554738 
C    1.47314157   1.56612751   0.56794828 
H    1.72297627   2.14326289   1.45679518 
H    0.98648821   2.21657348  -0.16375647 
H    2.40462071   1.17603289   0.15060928 
C   -1.00971680  -2.69559531   0.57534592 
H   -0.53116231  -3.06628525  -0.32691354 
H   -2.08325240  -2.63503644   0.39651735 
H   -0.81907892  -3.39921942   1.38417374 
H   -1.54733136  -1.13782912   2.78076192 
H   -0.22123650   1.26638457   2.76679683 
C   -0.32044010   1.58284141  -2.85798693 
H   -1.03955056   1.36407224  -3.60996215 
H   -0.07512260   2.61808880  -2.88989332 
H   -0.71983180   1.34560417  -1.90313206 
H    0.57177376   0.93604251  -3.06663794 
*
