! EnGrad PBEh-3c
%output 
xyzfile=True 
end 
%scf 
maxiter 250 
end
%output
Print[P_Hirshfeld] = 1
end
% maxcore
4000
*xyz 1 1
Sc   1.71351428  -1.40036499  -1.46984405 
C    0.44059462  -0.67897289   0.23613371 
N   -0.47859121  -1.38688208   0.92812705 
C   -0.86507518  -0.72091736   2.05396744 
C   -0.18757456   0.45452646   2.06040966 
N    0.59372804   0.46114900   0.94498495 
C    1.46985416   1.56464153   0.56304404 
H    1.71781402   2.14009008   1.45770184 
H    0.98949051   2.21432970  -0.16374850 
H    2.40029728   1.17814472   0.15147669 
C   -1.00866042  -2.69590736   0.57416858 
H   -0.53161578  -3.06500751  -0.32816680 
H   -2.08095466  -2.63350787   0.39726894 
H   -0.81847188  -3.39919836   1.38232087 
H   -1.54860746  -1.13662295   2.77533857 
H   -0.21741398   1.26359211   2.76624366 
C   -0.31302434   1.56761512  -2.86386268 
H   -1.05426489   1.35805537  -3.63153577 
H   -0.04281011   2.62890956  -2.89708179 
H   -0.71674364   1.33227656  -1.88470332 
H    0.54077513   0.95879238  -3.05387485 
*
