! EnGrad PBEh-3c
%output 
xyzfile=True 
end 
%scf 
maxiter 250 
end
%output
Print[P_Hirshfeld] = 1
end
% maxcore
4000
*xyz 1 1
Sc   1.71093545  -1.39525449  -1.47410024 
C    0.44640268  -0.68936090   0.24629552 
N   -0.47139578  -1.39020206   0.93921400 
C   -0.86312238  -0.71541221   2.05700665 
C   -0.19411163   0.46488334   2.05130124 
N    0.60592135   0.44843193   0.95077940 
C    1.46413060   1.55456363   0.56704309 
H    1.70929737   2.13161987   1.45353103 
H    0.99194498   2.20851849  -0.16083998 
H    2.39036374   1.18203840   0.14881272 
C   -1.00251912  -2.69254829   0.57676718 
H   -0.52824686  -3.06243289  -0.32832665 
H   -2.07380906  -2.62697643   0.39644560 
H   -0.81871018  -3.40182556   1.38031424 
H   -1.55972646  -1.12720972   2.75876945 
H   -0.20900440   1.26609570   2.76615434 
C   -0.33167704   1.56397737  -2.86587711 
H   -1.08167756   1.34675762  -3.66309777 
H    0.01053482   2.63729436  -2.91262025 
H   -0.71880168   1.30463419  -1.85230103 
H    0.52717239   1.00147551  -3.03770515 
*
