! EnGrad PBEh-3c
%output 
xyzfile=True 
end 
%scf 
maxiter 250 
end
%output
Print[P_Hirshfeld] = 1
end
% maxcore
4000
*xyz 1 1
Sc   1.70738417  -1.39540664  -1.47668445 
C    0.44830500  -0.69541393   0.24876835 
N   -0.46718217  -1.39295865   0.93877288 
C   -0.85958967  -0.70771352   2.05315844 
C   -0.20032849   0.45715366   2.05240704 
N    0.60913990   0.44764178   0.94538481 
C    1.46478409   1.55320360   0.57100822 
H    1.71185302   2.13143476   1.45150192 
H    0.98897367   2.20489520  -0.15611039 
H    2.39209255   1.18064406   0.14525140 
C   -1.00258664  -2.69435754   0.58023846 
H   -0.52456756  -3.06196686  -0.32616655 
H   -2.07044254  -2.62384746   0.39510281 
H   -0.81985506  -3.40335797   1.38102944 
H   -1.56879646  -1.12258894   2.75682210 
H   -0.20859174   1.27035699   2.76354156 
C   -0.36373811   1.60003235  -2.85686554 
H   -1.07716598   1.34993242  -3.64750525 
H   -0.01101371   2.62168076  -2.91054505 
H   -0.72808341   1.30876933  -1.86071277 
H    0.58385787   0.98267943  -3.05112112 
*
