! EnGrad PBEh-3c
%output 
xyzfile=True 
end 
%scf 
maxiter 250 
end
%output
Print[P_Hirshfeld] = 1
end
% maxcore
4000
*xyz 1 1
Sc   1.21067636  -0.77493414  -1.85315977 
C    0.29414400  -0.50596560   0.21585955 
N   -0.45851496  -1.34804713   0.94070838 
C   -0.72846624  -0.81437275   2.16544610 
C   -0.07149427   0.36267051   2.22932373 
N    0.53669824   0.54347492   1.02555466 
C    1.37711276   1.67974265   0.71956949 
H    1.30606516   2.50152822   1.42877866 
H    1.07926514   2.10322223  -0.23659502 
H    2.42492288   1.38676018   0.67835498 
C   -0.95238692  -2.64691962   0.52874516 
H   -0.66274337  -2.85160612  -0.49926775 
H   -2.03778111  -2.66250994   0.59777873 
H   -0.54118876  -3.42816120   1.16513895 
H   -1.33289890  -1.30580420   2.90815056 
H   -0.01894013   1.05373947   3.05216098 
C   -0.05683632   1.62933352  -2.89570276 
H   -0.67638771   1.63829388  -3.80427489 
H    0.59468611   2.50459592  -3.00740916 
H   -0.74840379   1.84809429  -2.07451337 
H   -0.53750277  -0.91312583  -3.28465184 
*
