! EnGrad PBEh-3c
%output 
xyzfile=True 
end 
%scf 
maxiter 250 
end
%output
Print[P_Hirshfeld] = 1
end
% maxcore
4000
*xyz 1 1
Sc   1.10129731  -0.71416576  -1.95409106 
C    0.33492695  -0.52604184   0.21087120 
N   -0.46713181  -1.33769939   0.93979091 
C   -0.73543671  -0.81441163   2.17430861 
C   -0.09713896   0.37246073   2.23398005 
N    0.53679898   0.53780096   1.04533741 
C    1.40107891   1.68436531   0.67455502 
H    1.32502458   2.46610306   1.44599182 
H    1.07392624   2.10361033  -0.24200284 
H    2.43273439   1.37085658   0.64696800 
C   -0.95330522  -2.65071329   0.52847809 
H   -0.65252576  -2.86502294  -0.48944096 
H   -2.03880530  -2.66259423   0.57727106 
H   -0.55801657  -3.42536233   1.18475769 
H   -1.35354426  -1.29299898   2.89766607 
H   -0.03598802   1.07726935   3.03028322 
C   -0.06539163   1.64218044  -2.85765679 
H   -0.69183439   1.60748719  -3.77991964 
H    0.56988063   2.50471740  -2.98263519 
H   -0.75670143   1.81342701  -2.05273085 
H   -0.36956358  -0.89023940  -3.23156382 
*
