! EnGrad PBEh-3c
%output 
xyzfile=True 
end 
%scf 
maxiter 250 
end
%output
Print[P_Hirshfeld] = 1
end
% maxcore
4000
*xyz 1 1
Sc   0.99445527  -0.59859390  -2.05552626 
C    0.36764132  -0.54618538   0.23506401 
N   -0.46391778  -1.34188799   0.93538878 
C   -0.75315362  -0.80166471   2.16082146 
C   -0.11391528   0.38918148   2.21382176 
N    0.56198293   0.52778202   1.02698664 
C    1.40824994   1.66078867   0.67029325 
H    1.36781182   2.40982312   1.45567400 
H    1.05889690   2.11434782  -0.26675925 
H    2.45036792   1.34158195   0.58147208 
C   -0.95621289  -2.64828099   0.53611175 
H   -0.63046866  -2.88942793  -0.47326724 
H   -2.04392245  -2.66153340   0.54304968 
H   -0.58879968  -3.41815853   1.21518721 
H   -1.39608405  -1.27655480   2.88631507 
H   -0.06946126   1.12303959   3.00369032 
C   -0.09171011   1.61753249  -2.82566008 
H   -0.71646394   1.56404379  -3.72715822 
H    0.53031923   2.51891340  -2.93917149 
H   -0.78873096   1.76495726  -1.99342500 
H   -0.12529560  -0.84658625  -3.18241125 
*
