! EnGrad PBEh-3c
%output 
xyzfile=True 
end 
%scf 
maxiter 250 
end
%output
Print[P_Hirshfeld] = 1
end
% maxcore
4000
*xyz 1 1
Sc   1.05464725  -0.46873891  -2.00456157 
C    0.37706255  -0.57201818   0.22683459 
N   -0.45205347  -1.35337067   0.94408214 
C   -0.77941268  -0.77390831   2.14259974 
C   -0.11669416   0.40709647   2.18879747 
N    0.57719125   0.50713908   1.01735578 
C    1.41681239   1.63510757   0.64513170 
H    1.41496728   2.36733717   1.45701537 
H    1.05105823   2.11774171  -0.25501364 
H    2.44735188   1.31510465   0.50967692 
C   -0.96203271  -2.65243122   0.53869227 
H   -0.60571564  -2.91236346  -0.45202189 
H   -2.05021228  -2.65450562   0.51323356 
H   -0.62279169  -3.40945116   1.24074236 
H   -1.42826388  -1.25020225   2.86327321 
H   -0.10320720   1.15528981   2.96413827 
C   -0.11620674   1.57889693  -2.77801193 
H   -0.76048995   1.53159823  -3.68954630 
H    0.47150869   2.50619865  -2.89582685 
H   -0.81814916   1.72007658  -1.94123045 
H    0.00857253  -0.78943809  -3.23553644 
*
