! EnGrad PBEh-3c
%output 
xyzfile=True 
end 
%scf 
maxiter 250 
end
%output
Print[P_Hirshfeld] = 1
end
% maxcore
4000
*xyz 1 1
Sc   1.13610605  -0.33807719  -1.94703147 
C    0.38895519  -0.60121994   0.23001085 
N   -0.44890234  -1.36519925   0.94926384 
C   -0.80468284  -0.74914193   2.11832535 
C   -0.12961338   0.42242108   2.15490417 
N    0.59256700   0.48472367   1.00585309 
C    1.42981400   1.60650237   0.62340726 
H    1.47525782   2.31464254   1.45183327 
H    1.03349980   2.12934162  -0.24477757 
H    2.44525489   1.27950825   0.42080656 
C   -0.96972339  -2.65814729   0.54386183 
H   -0.57548727  -2.93909852  -0.42693682 
H   -2.05804230  -2.64200144   0.47907477 
H   -0.66645158  -3.40449110   1.27302934 
H   -1.46442021  -1.21166856   2.83234040 
H   -0.13927464   1.19469736   2.91331562 
C   -0.15717378   1.53023404  -2.72942106 
H   -0.81044031   1.49122454  -3.63035861 
H    0.39792656   2.47453598  -2.84530961 
H   -0.85142155   1.66202477  -1.88292542 
H    0.18218268  -0.67307199  -3.28899861 
*
