! EnGrad PBEh-3c
%output 
xyzfile=True 
end 
%scf 
maxiter 250 
end
%output
Print[P_Hirshfeld] = 1
end
% maxcore
4000
*xyz 1 1
Sc   1.18769636  -0.30880516  -1.91768214 
C    0.39220094  -0.61433724   0.23542180 
N   -0.45234022  -1.36942370   0.94397923 
C   -0.81155725  -0.74341289   2.10786624 
C   -0.14402534   0.43120741   2.15242436 
N    0.60114888   0.47955927   0.99202843 
C    1.43146459   1.59758817   0.61782005 
H    1.50444046   2.29376437   1.44292468 
H    1.02112134   2.13742075  -0.23526039 
H    2.44340206   1.26208187   0.38284241 
C   -0.97538993  -2.66304045   0.54898457 
H   -0.56351687  -2.94882346  -0.41624009 
H   -2.05944538  -2.63312117   0.46768808 
H   -0.68764233  -3.40640461   1.28482354 
H   -1.47855233  -1.19144686   2.81930425 
H   -0.14952677   1.20453738   2.88489722 
C   -0.17623921   1.49979641  -2.70844544 
H   -0.83419351   1.47071617  -3.60292912 
H    0.36929683   2.43908306  -2.82884185 
H   -0.86183680   1.63316983  -1.86636452 
H    0.25031163  -0.56020277  -3.30377132 
*
