! EnGrad PBEh-3c
%output 
xyzfile=True 
end 
%scf 
maxiter 250 
end
%output
Print[P_Hirshfeld] = 1
end
% maxcore
4000
*xyz -1 1
Pd  -2.30680708  -1.73011890   0.81089636 
Cl  -3.82159318  -3.14599026  -0.00488483 
Cl  -1.09941900  -4.05493670   1.69438630 
Cl  -3.68769201   0.06612838   0.20856864 
N   -0.92346442  -0.22115263   1.44609418 
C   -1.20741143   0.31690625   2.61498572 
C   -0.71839336   1.53866785   3.04029131 
C    0.07677698   2.24627916   2.19437592 
C   -0.06035125   0.41264322   0.62018124 
C    0.43040266   1.70873088   0.94488588 
H    0.45515654   3.23067037   2.47204729 
H   -1.89354747  -0.25022323   3.23495097 
H   -1.00020171   1.92252467   4.01891367 
C    0.36154225  -0.23187210  -0.59583446 
C    1.24809882   2.40928476   0.02245358 
C    1.57568938   1.86231322  -1.15476901 
C    1.17674085   0.53218886  -1.50979008 
H    1.59331904   3.40716530   0.28591632 
H    2.18749400   2.41562770  -1.86478966 
C    0.08913409  -1.75373950  -0.85558264 
C    1.62720309  -0.04930375  -2.70154834 
C    0.54467137  -2.09237099  -2.12541408 
C    1.30327739  -1.34645588  -3.00397909 
H    2.22497689   0.52874400  -3.38107124 
H    1.67065331  -1.79269018  -3.91990034 
H   -0.18415686  -2.79478355  -0.12280868 
H    0.33858533  -3.13178339  -2.36723225 
*
