! EnGrad PBEh-3c
%output 
xyzfile=True 
end 
%scf 
maxiter 250 
end
%output
Print[P_Hirshfeld] = 1
end
% maxcore
4000
*xyz -1 1
Pd  -2.29150415  -1.77470609   0.80576574 
Cl  -3.79245001  -3.15514137  -0.01730540 
Cl  -1.07331429  -4.04510943   1.64783118 
Cl  -3.70488039   0.04041331   0.26150226 
N   -0.93370401  -0.21687512   1.45148307 
C   -1.22059636   0.32165518   2.61230673 
C   -0.72397123   1.55503824   3.04546511 
C    0.08372976   2.26156794   2.18663065 
C   -0.05860628   0.41528705   0.62434495 
C    0.42861120   1.71117836   0.94910381 
H    0.45722525   3.23593144   2.46780102 
H   -1.89900108  -0.23272143   3.23147793 
H   -1.00720734   1.93728596   4.00921109 
C    0.35133202  -0.28137395  -0.58674805 
C    1.25592153   2.41853596   0.03248823 
C    1.58727921   1.85536724  -1.16043464 
C    1.16555940   0.52223119  -1.49582667 
H    1.60585870   3.40486901   0.28859397 
H    2.20171061   2.40752357  -1.85768968 
C    0.10465451  -1.81025387  -0.82096842 
C    1.63098705  -0.05558516  -2.70357436 
C    0.51249572  -2.11698032  -2.11011206 
C    1.29483079  -1.32238005  -3.01288499 
H    2.23924828   0.52988339  -3.37564431 
H    1.66261670  -1.79150143  -3.91699787 
H   -0.18820066  -2.69246379  -0.17690971 
H    0.31291013  -3.11791457  -2.37616329 
*
