! EnGrad PBEh-3c
%output 
xyzfile=True 
end 
%scf 
maxiter 250 
end
%output
Print[P_Hirshfeld] = 1
end
% maxcore
4000
*xyz -1 1
Pd  -2.27649091  -1.78153725   0.81351831 
Cl  -3.78379457  -3.17656244  -0.03311523 
Cl  -1.05703977  -4.03019673   1.61307467 
Cl  -3.71069598   0.01192604   0.30311515 
N   -0.92928292  -0.21655203   1.45204011 
C   -1.22816451   0.33188450   2.61101133 
C   -0.72489425   1.56399239   3.03736686 
C    0.08039104   2.26616595   2.18905609 
C   -0.06318244   0.40014785   0.61683873 
C    0.42825913   1.70558947   0.94567312 
H    0.46023612   3.24341459   2.46477391 
H   -1.90944453  -0.22355179   3.23444426 
H   -1.01317586   1.95015256   4.00692296 
C    0.36292984  -0.31936892  -0.57471084 
C    1.26132088   2.41233557   0.02847839 
C    1.58219497   1.84247146  -1.14958959 
C    1.14990641   0.49394408  -1.47576947 
H    1.61628170   3.40693665   0.29216098 
H    2.21182792   2.39900687  -1.85463027 
C    0.13133172  -1.73687654  -0.83874192 
C    1.62645285  -0.04993050  -2.69175239 
C    0.51168962  -2.12159546  -2.10300796 
C    1.26934866  -1.33666829  -3.00179126 
H    2.25081268   0.53056558  -3.37138517 
H    1.65247946  -1.78987432  -3.91520340 
H   -0.18978120  -2.63977621  -0.19870805 
H    0.29294233  -3.13289050  -2.39566451 
*
