! EnGrad PBEh-3c
%output 
xyzfile=True 
end 
%scf 
maxiter 250 
end
%output
Print[P_Hirshfeld] = 1
end
% maxcore
4000
*xyz -1 1
Pd  -2.25897623  -1.80357977   0.81973394 
Cl  -3.76383377  -3.20117598  -0.05354432 
Cl  -1.02968126  -4.01020479   1.56012787 
Cl  -3.72246911  -0.02647687   0.36466816 
N   -0.93085988  -0.21701755   1.45620559 
C   -1.23640094   0.34832237   2.60867248 
C   -0.73365531   1.57343259   3.03351860 
C    0.08075015   2.27121741   2.18090069 
C   -0.06460784   0.38785085   0.62102997 
C    0.42670985   1.69902165   0.94288005 
H    0.46433717   3.25296983   2.45957109 
H   -1.92265118  -0.20811653   3.23604031 
H   -1.02121846   1.96799614   4.00014362 
C    0.37657877  -0.33236304  -0.55804153 
C    1.26801689   2.40856253   0.03060686 
C    1.58154750   1.82500623  -1.14217855 
C    1.14876800   0.47558082  -1.46716358 
H    1.62996587   3.40438944   0.29546355 
H    2.22164186   2.38064824  -1.84572994 
C    0.14755985  -1.71538744  -0.84274659 
C    1.61677984  -0.05511377  -2.67736829 
C    0.51198448  -2.12261612  -2.11244463 
C    1.24782696  -1.34304631  -2.99663060 
H    2.26135398   0.52757375  -3.35819344 
H    1.63604944  -1.78714537  -3.90995369 
H   -0.19456415  -2.55880735  -0.22704747 
H    0.26253158  -3.13905725  -2.41185394 
*
