! EnGrad PBEh-3c
%output 
xyzfile=True 
end 
%scf 
maxiter 250 
end
%output
Print[P_Hirshfeld] = 1
end
% maxcore
4000
*xyz -1 1
Pd  -2.24088760  -1.82872459   0.83001424 
Cl  -3.73936277  -3.23377071  -0.08011845 
Cl  -0.99401220  -3.97915327   1.49134553 
Cl  -3.73583383  -0.07654152   0.44364965 
N   -0.93218775  -0.22030480   1.46320201 
C   -1.25053956   0.36296290   2.60876004 
C   -0.74125020   1.58932894   3.02323639 
C    0.07698660   2.27309393   2.17374931 
C   -0.06352065   0.37558272   0.63311999 
C    0.42621503   1.69206063   0.94036007 
H    0.46861402   3.26127302   2.45020603 
H   -1.93854935  -0.18672825   3.23631296 
H   -1.03171729   1.99026878   3.99224478 
C    0.39952880  -0.32714445  -0.54335494 
C    1.27393869   2.39580674   0.03066106 
C    1.58333380   1.80724551  -1.13146399 
C    1.15508161   0.46376665  -1.45448229 
H    1.64558940   3.39742438   0.29852925 
H    2.22939467   2.35155493  -1.83284765 
C    0.16526959  -1.68154585  -0.86472451 
C    1.60834755  -0.06353211  -2.66812723 
C    0.50988317  -2.12925317  -2.12402608 
C    1.23209152  -1.34849137  -2.99842964 
H    2.26523024   0.51690908  -3.33227109 
H    1.61266175  -1.78380778  -3.90520501 
H   -0.20603443  -2.47650336  -0.24269289 
H    0.22622503  -3.14091616  -2.42778707 
*
