! EnGrad PBEh-3c
%output 
xyzfile=True 
end 
%scf 
maxiter 250 
end
%output
Print[P_Hirshfeld] = 1
end
% maxcore
4000
*xyz -1 1
Pd  -2.22362887  -1.88359248   0.84973386 
Cl  -3.68529303  -3.29552832  -0.13294401 
Cl  -0.91221532  -3.90238238   1.34660074 
Cl  -3.76512578  -0.17435040   0.60806226 
N   -0.93225663  -0.23121640   1.48508235 
C   -1.27789102   0.37961859   2.60826749 
C   -0.76402129   1.62067800   3.00992857 
C    0.07157192   2.28365528   2.16110361 
C   -0.04668844   0.36854102   0.66318874 
C    0.42693712   1.68275986   0.95053106 
H    0.47156691   3.26188038   2.42225587 
H   -1.97434416  -0.14153564   3.23549648 
H   -1.05186432   2.03197608   3.96828797 
C    0.43448891  -0.30141317  -0.53666454 
C    1.28285620   2.37424319   0.04274318 
C    1.60642648   1.78765759  -1.11727727 
C    1.19052383   0.46895932  -1.43944367 
H    1.66638257   3.36161597   0.29922978 
H    2.24541824   2.29281267  -1.81391553 
C    0.17650323  -1.63761571  -0.90374501 
C    1.59923113  -0.08762536  -2.65610608 
C    0.48872235  -2.14112195  -2.14246355 
C    1.22635984  -1.34420612  -3.01310323 
H    2.26303921   0.49151547  -3.27867633 
H    1.57120093  -1.78410700  -3.92688088 
H   -0.24365759  -2.35791213  -0.23006512 
H    0.16077719  -3.12641417  -2.44194082 
*
