! EnGrad PBEh-3c
%output 
xyzfile=True 
end 
%scf 
maxiter 250 
end
%output
Print[P_Hirshfeld] = 1
end
% maxcore
4000
*xyz -1 1
Pd  -2.22891185  -1.90681499   0.85742903 
Cl  -3.65942982  -3.32047160  -0.15683884 
Cl  -0.86734580  -3.86096687   1.27877010 
Cl  -3.78185946  -0.21408360   0.68587684 
N   -0.92611019  -0.23589716   1.49681396 
C   -1.28293235   0.38523687   2.60599866 
C   -0.78003751   1.62760942   3.00552051 
C    0.06733235   2.28904211   2.15983622 
C   -0.03310398   0.36873573   0.67226088 
C    0.43113222   1.67983404   0.96096654 
H    0.47067826   3.25771153   2.40622321 
H   -1.99622340  -0.12298702   3.23602430 
H   -1.06208637   2.04969924   3.95540690 
C    0.43869593  -0.28866554  -0.54368813 
C    1.28590376   2.36421733   0.05279973 
C    1.62648776   1.78749348  -1.11076534 
C    1.21004352   0.47454803  -1.43614346 
H    1.66998081   3.33900350   0.29905525 
H    2.26088050   2.27635284  -1.81623799 
C    0.16238224  -1.63015418  -0.90796652 
C    1.60596211  -0.09110339  -2.65067079 
C    0.47437398  -2.12993703  -2.14575808 
C    1.22889965  -1.35358350  -3.02445311 
H    2.26227876   0.48254803  -3.26343820 
H    1.55654810  -1.78516155  -3.95456191 
H   -0.26510665  -2.33242057  -0.20308846 
H    0.13550899  -3.11472118  -2.43822315 
*
