! EnGrad PBEh-3c
%output 
xyzfile=True 
end 
%scf 
maxiter 250 
end
%output
Print[P_Hirshfeld] = 1
end
% maxcore
4000
*xyz 0 1
Pd   0.68686816   0.58620016  -0.50887605 
O    2.27176697   1.58360973   0.33334132 
C    1.66831380   2.73323367   0.25863468 
O    0.49674057   2.74380838  -0.08648087 
C    2.46539573   3.98637916   0.55271509 
H    1.82952446   4.71896648   1.04311730 
H    2.80781408   4.41499615  -0.39116845 
H    3.34138726   3.78246404   1.16457288 
N   -1.18790628  -0.28908794  -1.16027060 
C   -1.23370986  -0.93109212  -2.48279132 
H   -0.95084241  -0.22959694  -3.25481683 
H   -2.25998814  -1.26510541  -2.70349974 
H   -0.58813633  -1.78622955  -2.54121236 
C   -2.09366227   0.85264025  -1.20580636 
H   -2.07241714   1.40575620  -0.28886357 
H   -3.12375363   0.52410181  -1.40996063 
H   -1.78948831   1.52695848  -2.00208203 
C   -1.46299015  -0.94318646   1.27866577 
C   -0.43725987  -1.62291557   1.98046918 
C   -0.30466848  -1.55456527   3.34583926 
C   -1.22023535  -0.87166239   4.07677312 
C   -2.31989912  -0.31035650   3.44917831 
C   -2.45770780  -0.17354653   2.07775605 
H   -1.09367301  -0.78319454   5.16118505 
H   -3.08941026   0.06184925   4.08655882 
H    0.27274145  -2.22808008   1.43851128 
H    0.49148680  -2.07365364   3.83830529 
H   -3.47316057   0.87732941   1.75001761 
C   -1.66042514  -1.28035759  -0.15831012 
H   -2.72684750  -1.46863312  -0.29200708 
H   -1.17306882  -2.22590700  -0.39207459 
O    1.71591608  -1.01695745  -1.06231773 
C    2.27835695  -0.83435820  -2.25058984 
O    1.96007103   0.00752792  -3.02483758 
C    3.39067303  -1.80385666  -2.58292174 
H    3.08898736  -2.82077310  -2.41728440 
H    4.27190920  -1.59775397  -1.98065182 
H    3.68255205  -1.69689564  -3.64131081 
*
