! EnGrad PBEh-3c
%output 
xyzfile=True 
end 
%scf 
maxiter 250 
end
%output
Print[P_Hirshfeld] = 1
end
% maxcore
4000
*xyz 0 1
Pd   0.68053539   0.57842788  -0.51786796 
O    2.27538491   1.61752036   0.32512022 
C    1.69540379   2.73878007   0.26142597 
O    0.48807126   2.74426957  -0.08390497 
C    2.45530328   3.99910180   0.54992105 
H    1.81153426   4.72364300   1.04237395 
H    2.79393976   4.43101236  -0.39348200 
H    3.33295437   3.79989664   1.16027829 
N   -1.16768656  -0.27416049  -1.14622653 
C   -1.24107604  -0.88953894  -2.48952486 
H   -0.95615930  -0.18226697  -3.26304045 
H   -2.26046428  -1.22859766  -2.71891713 
H   -0.59128342  -1.74943424  -2.57321832 
C   -2.09100599   0.86555231  -1.19337538 
H   -2.05437740   1.41351963  -0.26533008 
H   -3.12221785   0.54631610  -1.38434834 
H   -1.79619180   1.56005059  -1.97661239 
C   -1.45137705  -0.94065691   1.28342159 
C   -0.41725710  -1.60078237   1.96073883 
C   -0.29151471  -1.54799342   3.33298724 
C   -1.21193464  -0.85198116   4.08001006 
C   -2.35014498  -0.37899085   3.44373806 
C   -2.41665512  -0.23430470   2.05718656 
H   -1.09206162  -0.79197487   5.15762974 
H   -3.11637855   0.00729197   4.09873882 
H    0.32043854  -2.19102988   1.43396499 
H    0.53211542  -2.03639768   3.82875073 
H   -3.61482721   0.82056209   1.73340975 
C   -1.63649216  -1.28161374  -0.16246559 
H   -2.70408212  -1.48662185  -0.30369398 
H   -1.13016449  -2.21464226  -0.41728314 
O    1.69916214  -1.01972682  -1.05628442 
C    2.27926021  -0.85852705  -2.21823586 
O    1.98609215  -0.00013260  -3.01733864 
C    3.37974825  -1.83655295  -2.57897480 
H    3.05393437  -2.85343791  -2.39021061 
H    4.26146439  -1.64166494  -1.97041199 
H    3.66837001  -1.75547523  -3.62965557 
*
