! EnGrad PBEh-3c
%output 
xyzfile=True 
end 
%scf 
maxiter 250 
end
%output
Print[P_Hirshfeld] = 1
end
% maxcore
4000
*xyz 0 1
Pd   0.70293804   0.59241355  -0.48195901 
O    2.23245111   1.51154444   0.35882349 
C    1.64784191   2.68634455   0.26551689 
O    0.49247413   2.74585093  -0.10365432 
C    2.49421671   3.93769641   0.55986812 
H    1.89112749   4.70347703   1.04597200 
H    2.85558786   4.35959151  -0.38315681 
H    3.36917387   3.72076225   1.17876566 
N   -1.24060500  -0.34340262  -1.18972534 
C   -1.22387509  -1.06623708  -2.45496547 
H   -0.93032576  -0.39096614  -3.23054864 
H   -2.25497355  -1.39189511  -2.65317541 
H   -0.57343506  -1.91695974  -2.43081960 
C   -2.10978264   0.80099878  -1.26449516 
H   -2.13007968   1.38179775  -0.36464082 
H   -3.12730751   0.45070411  -1.49694452 
H   -1.76709823   1.41588203  -2.08860102 
C   -1.52398259  -0.92786973   1.30847319 
C   -0.52963429  -1.68608311   2.01923175 
C   -0.35239420  -1.59066951   3.38573224 
C   -1.24424741  -0.91493270   4.09068932 
C   -2.23302945  -0.09353398   3.46033032 
C   -2.53213665   0.01327931   2.10383857 
H   -1.09968357  -0.75619718   5.16597875 
H   -2.99485300   0.25633102   4.05842720 
H    0.10982763  -2.35715884   1.45753682 
H    0.35623072  -2.20256884   3.87666868 
H   -3.00577932   1.06544451   1.80562795 
C   -1.73821447  -1.27812256  -0.14182362 
H   -2.80889653  -1.40678636  -0.25203743 
H   -1.31950578  -2.26483717  -0.31115344 
O    1.77460080  -0.99466070  -1.09582262 
C    2.27576828  -0.78342174  -2.30862737 
O    1.86336080   0.05506198  -3.08176951 
C    3.43723780  -1.67869558  -2.61948518 
H    3.20473535  -2.71472108  -2.50873213 
H    4.30652880  -1.44588954  -2.01355100 
H    3.73024366  -1.49819425  -3.67384448 
*
