! EnGrad PBEh-3c
%output 
xyzfile=True 
end 
%scf 
maxiter 250 
end
%output
Print[P_Hirshfeld] = 1
end
% maxcore
4000
*xyz 0 1
Pd   0.68648953   0.58214496  -0.50832415 
O    2.26397405   1.58935429   0.33407780 
C    1.68276289   2.72484386   0.26251324 
O    0.48924144   2.74468986  -0.08915392 
C    2.46564561   3.98278160   0.55256476 
H    1.83268839   4.71828333   1.04333023 
H    2.81032447   4.41203027  -0.39073779 
H    3.34258071   3.77886446   1.16519183 
N   -1.18706668  -0.29256352  -1.15778755 
C   -1.23650440  -0.93650142  -2.48033973 
H   -0.94929331  -0.23773462  -3.25440484 
H   -2.25900496  -1.27199853  -2.70144443 
H   -0.58653972  -1.79395884  -2.53537188 
C   -2.09599641   0.84839540  -1.21227746 
H   -2.07449740   1.40508865  -0.29172469 
H   -3.12357057   0.52090454  -1.41427393 
H   -1.78845937   1.52173376  -2.00637650 
C   -1.47067401  -0.93725836   1.29007975 
C   -0.44712448  -1.62345343   1.97628496 
C   -0.30769514  -1.55933579   3.34700570 
C   -1.22052266  -0.86871230   4.08284837 
C   -2.31901825  -0.30312270   3.44814792 
C   -2.44734757  -0.16850231   2.06958564 
H   -1.09408737  -0.78246595   5.15984872 
H   -3.08407973   0.07348107   4.08802488 
H    0.26446280  -2.23518330   1.44022986 
H    0.48536914  -2.08056232   3.84148627 
H   -3.45295568   0.88564645   1.75260376 
C   -1.66352771  -1.28068586  -0.15697941 
H   -2.73193948  -1.46540333  -0.28996480 
H   -1.18048724  -2.22798296  -0.38907620 
O    1.71921207  -1.01306480  -1.06679280 
C    2.27833214  -0.83856571  -2.24225994 
O    1.95347286   0.01453690  -3.03446295 
C    3.39502771  -1.79459793  -2.58974157 
H    3.09401395  -2.81657003  -2.42171102 
H    4.27344152  -1.58963215  -1.98187739 
H    3.68481467  -1.68709561  -3.64140001 
*
