! EnGrad PBEh-3c
%output 
xyzfile=True 
end 
%scf 
maxiter 250 
end
%output
Print[P_Hirshfeld] = 1
end
% maxcore
4000
*xyz 0 1
Pd   0.69967054   0.56955019  -0.46535770 
O    2.19225825   1.45618776   0.38371486 
C    1.64940977   2.65957066   0.27988849 
O    0.48653444   2.74663150  -0.11938190 
C    2.52339615   3.88157713   0.56680734 
H    1.95024171   4.68464405   1.04797669 
H    2.90227236   4.30226095  -0.37461115 
H    3.39357427   3.65901929   1.19056605 
N   -1.26616680  -0.40317512  -1.18456118 
C   -1.22670215  -1.19230904  -2.41804222 
H   -0.90420998  -0.54951959  -3.21169075 
H   -2.24899897  -1.52219090  -2.60734201 
H   -0.55697047  -2.04732569  -2.31804585 
C   -2.13132676   0.74483474  -1.33636910 
H   -2.17880065   1.35910908  -0.44035895 
H   -3.13201963   0.38069487  -1.58278853 
H   -1.74476285   1.31181251  -2.17504703 
C   -1.58824356  -0.89648009   1.34831313 
C   -0.64790152  -1.73199588   2.04095429 
C   -0.41441625  -1.64848719   3.40251618 
C   -1.28182689  -0.90041942   4.11512844 
C   -2.14801606   0.07031858   3.45523822 
C   -2.50195606   0.18173495   2.11246424 
H   -1.10569445  -0.73522585   5.17421807 
H   -2.89823209   0.47129326   4.05970777 
H   -0.06151458  -2.48472309   1.48136785 
H    0.23027551  -2.33435270   3.92490983 
H   -2.60073972   1.22729881   1.84667617 
C   -1.81240552  -1.27105731  -0.10532295 
H   -2.89478147  -1.34209556  -0.21422429 
H   -1.46126324  -2.30384662  -0.24056292 
O    1.82886080  -0.95886253  -1.12921572 
C    2.25947296  -0.70284783  -2.37205747 
O    1.77553619   0.05776344  -3.12346156 
C    3.49267706  -1.54323316  -2.67628215 
H    3.31635171  -2.61251823  -2.60118394 
H    4.33815186  -1.29355500  -2.04227967 
H    3.77645155  -1.30120142  -3.70418937 
*
