! EnGrad PBEh-3c
%output 
xyzfile=True 
end 
%scf 
maxiter 250 
end
%output
Print[P_Hirshfeld] = 1
end
% maxcore
4000
*xyz 0 1
Pd   0.69025235   0.57854949  -0.49605840 
O    2.24350113   1.55133886   0.34824784 
C    1.67324148   2.70621013   0.26747341 
O    0.48846867   2.74524414  -0.09778319 
C    2.48213183   3.95389047   0.55663063 
H    1.86624667   4.70868023   1.04465667 
H    2.83657310   4.38069410  -0.38613407 
H    3.35713799   3.74465191   1.17243548 
N   -1.20964762  -0.32414013  -1.16543070 
C   -1.23370613  -1.00952756  -2.46255548 
H   -0.93642324  -0.32674078  -3.24221113 
H   -2.25614852  -1.34342167  -2.67458074 
H   -0.57809850  -1.86628820  -2.47333119 
C   -2.10608227   0.81883164  -1.24770226 
H   -2.10427315   1.39196273  -0.33415574 
H   -3.12598255   0.48087848  -1.46238028 
H   -1.77598520   1.46180693  -2.05452737 
C   -1.50423693  -0.92561727   1.30670380 
C   -0.50444088  -1.65443935   1.99474630 
C   -0.33816112  -1.58478610   3.36285244 
C   -1.23802336  -0.87776382   4.09206346 
C   -2.27020176  -0.19651533   3.45017201 
C   -2.46293681  -0.06851907   2.08182632 
H   -1.09740088  -0.76898018   5.16395078 
H   -3.03102527   0.18704567   4.07994111 
H    0.17140509  -2.30642014   1.45197364 
H    0.41254682  -2.15301259   3.86530143 
H   -3.20967113   0.98317894   1.77945888 
C   -1.70602829  -1.27793717  -0.14223289 
H   -2.77842646  -1.43020230  -0.26834294 
H   -1.26064118  -2.24963998  -0.34667969 
O    1.75051381  -0.99759152  -1.08461285 
C    2.27294835  -0.79982194  -2.27931361 
O    1.90267676   0.02687691  -3.05986964 
C    3.42290395  -1.72284010  -2.61444656 
H    3.15748536  -2.75831877  -2.47294567 
H    4.29191457  -1.50511015  -1.99912060 
H    3.71097451  -1.57693328  -3.65932467 
*
