! EnGrad PBEh-3c
%output 
xyzfile=True 
end 
%scf 
maxiter 250 
end
%output
Print[P_Hirshfeld] = 1
end
% maxcore
4000
*xyz 0 1
Pd   0.67661646   0.49390141  -0.42420522 
O    2.09020943   1.35077644   0.44480695 
C    1.64651381   2.56770834   0.30949853 
O    0.49058635   2.75604050  -0.14909615 
C    2.59797749   3.75386094   0.58787249 
H    2.10105206   4.62817310   1.04931123 
H    3.01895348   4.15235588  -0.35096770 
H    3.45492966   3.50001314   1.22007878 
N   -1.32630426  -0.55192751  -1.15865218 
C   -1.21805917  -1.51512618  -2.30844037 
H   -0.83246691  -0.95357192  -3.16033899 
H   -2.23759965  -1.85812785  -2.49198944 
H   -0.52439987  -2.36462167  -2.02640254 
C   -2.17364306   0.60505008  -1.50839022 
H   -2.29554856   1.29791425  -0.64648961 
H   -3.14901279   0.20319161  -1.80146618 
H   -1.68638501   1.05244380  -2.39570329 
C   -1.73543450  -0.80777527   1.43078160 
C   -0.93300470  -1.86392217   2.09205939 
C   -0.61077173  -1.78560213   3.47396917 
C   -1.33876664  -0.85073903   4.14782218 
C   -1.95661974   0.45783475   3.48082485 
C   -2.30697833   0.55861768   2.13228871 
H   -1.12472098  -0.68160448   5.20442810 
H   -2.61713744   1.03302926   4.06399271 
H   -0.52596440  -2.79664984   1.55022879 
H   -0.10570478  -2.66263425   4.04070578 
H   -1.69792140   1.63694226   1.91430997 
C   -2.00339052  -1.26124069  -0.01159381 
H   -3.10796029  -1.16820401  -0.11909710 
H   -1.82322379  -2.38926143  -0.06370915 
O    1.96209082  -0.84893942  -1.21968748 
C    2.26895624  -0.61929230  -2.43377998 
O    1.50845986   0.14440917  -3.32940858 
C    3.61851447  -1.19617317  -2.81177904 
H    3.60112258  -2.33526874  -2.84437159 
H    4.41475949  -0.90495662  -2.11123631 
H    3.89837780  -0.79830495  -3.79558199 
*
