38
Generated by autodE on: 2023-07-08. E = -64.540200 Ha
C    -2.46314  -0.34725   0.17763
C    -2.08130   0.59368   1.12812
C    -3.64985  -1.04324   0.30275
C    -4.47839  -0.79895   1.38750
C    -4.11305   0.14121   2.33524
C    -2.91857   0.83172   2.20884
H    -1.81266  -0.51368  -0.68660
H    -3.92388  -1.77123  -0.44689
H    -2.63723   1.56268   2.95597
H    -5.41022  -1.33810   1.49211
H    -4.76029   0.33699   3.18043
C    -0.74832   1.26169   0.97887
C     0.36347   0.35724   1.55504
H    -0.73012   2.23274   1.47814
H    -0.54733   1.41378  -0.08795
C     1.68025   0.60582   0.86889
H     0.07623  -0.69243   1.38195
H     0.45064   0.51137   2.63371
C     1.89058   0.10569  -0.42029
C     3.11918   0.32063  -1.03326
C     4.11718   1.04263  -0.39526
C     2.68180   1.33311   1.49692
C     3.89650   1.55494   0.87052
H     3.30328  -0.07614  -2.02951
H     5.06858   1.20355  -0.88702
H     2.50985   1.72711   2.49182
H     4.66920   2.12330   1.37273
Pd    0.51332  -0.91953  -1.47353
Br   -1.07966  -2.54288  -2.61639
P     0.82026  -2.80638  -0.44135
H    -0.25604  -3.43109   0.17313
C     0.64733   0.62381  -3.50178
O     1.43363  -0.29244  -3.73392
O     0.00021   0.83636  -2.46040
O     0.46268   1.56375  -4.49570
H     1.69975  -3.05042   0.63777
H     1.22294  -3.93625  -1.14188
H     0.98319   1.27622  -5.25635
