! EnGrad PBEh-3c
%output 
xyzfile=True 
end 
%scf 
maxiter 250 
end
%output
Print[P_Hirshfeld] = 1
end
% maxcore
4000
*xyz 1 1
Sc   0.50756235  -0.34674033  -2.07974068 
C    0.19070157  -0.40633596   0.19267894 
N   -0.45797829  -1.32467058   0.93297615 
C   -0.55505165  -0.91767700   2.22715759 
C    0.05080448   0.28496863   2.30755691 
N    0.49766850   0.57820818   1.05775242 
C    1.24789479   1.77746190   0.73633405 
H    0.88453004   2.59611885   1.35208274 
H    1.09502467   2.05268127  -0.30152654 
H    2.31101048   1.63747022   0.92591759 
C   -0.97999169  -2.59886887   0.46979699 
H   -0.94336058  -2.65332467  -0.61342726 
H   -2.01664321  -2.69926914   0.78401086 
H   -0.40100721  -3.41780890   0.89333318 
H   -1.05728828  -1.48856136   2.98122495 
H    0.18181190   0.94784623   3.13959363 
C    0.16521123   1.58010557  -2.89895197 
H   -0.37239466   1.39274616  -3.86233465 
H    0.98633937   2.30210353  -3.07298008 
H   -0.58303009   2.02479034  -2.19861658 
H   -0.75204364  -1.31257528  -2.96101815 
*
