! EnGrad PBEh-3c
%output 
xyzfile=True 
end 
%scf 
maxiter 250 
end
%output
Print[P_Hirshfeld] = 1
end
% maxcore
4000
*xyz 1 1
Sc   0.59306147  -0.47938989  -2.11373649 
C    0.17122011  -0.39711683   0.19459477 
N   -0.46710694  -1.32194969   0.95725857 
C   -0.53324483  -0.93485845   2.25640186 
C    0.06771161   0.27158155   2.33582066 
N    0.47749989   0.58709811   1.07783058 
C    1.21250316   1.81470104   0.74114004 
H    0.80872128   2.64409619   1.32546154 
H    1.10060645   2.05880544  -0.29486476 
H    2.26165604   1.68892720   0.99155122 
C   -0.98831074  -2.59274673   0.47396823 
H   -1.01427148  -2.61970866  -0.60589595 
H   -2.01061766  -2.72480591   0.83240358 
H   -0.37698448  -3.41265164   0.84848059 
H   -0.99397267  -1.52843166   3.01951233 
H    0.24187281   0.90077090   3.18571557 
C    0.18675930   1.50544850  -2.91676009 
H   -0.36023522   1.45002286  -3.90201069 
H    0.99052501   2.24261313  -3.12019280 
H   -0.54534188   2.06397646  -2.27230000 
H   -0.82279831  -1.21576218  -3.01209459 
*
