! EnGrad PBEh-3c
%output 
xyzfile=True 
end 
%scf 
maxiter 250 
end
%output
Print[P_Hirshfeld] = 1
end
% maxcore
4000
*xyz 1 1
Sc   0.54250875  -0.43506313  -2.16695361 
C    0.17836236  -0.40250483   0.19732148 
N   -0.46271909  -1.32274595   0.95115800 
C   -0.54044873  -0.93132817   2.25748928 
C    0.06045478   0.27476566   2.33591954 
N    0.48558082   0.58468659   1.07133195 
C    1.21768769   1.80885703   0.74480835 
H    0.82475790   2.63771617   1.33002340 
H    1.09562585   2.05949815  -0.30237383 
H    2.26862034   1.67907787   0.98549857 
C   -0.98709215  -2.59360088   0.47785030 
H   -1.00396660  -2.62560156  -0.60865077 
H   -2.01049671  -2.72252849   0.82393505 
H   -0.38210148  -3.41407131   0.85940127 
H   -1.00712978  -1.52337332   3.01785576 
H    0.23343252   0.90942056   3.18244840 
C    0.18975935   1.49208967  -2.90596344 
H   -0.35864938   1.44007800  -3.88422402 
H    0.97977236   2.24314021  -3.11134495 
H   -0.54498815   2.04612224  -2.26645967 
H   -0.78005487  -1.20368847  -2.98566356 
*
