! EnGrad PBEh-3c
%output 
xyzfile=True 
end 
%scf 
maxiter 250 
end
%output
Print[P_Hirshfeld] = 1
end
% maxcore
4000
*xyz 1 1
Sc   0.51753222  -0.40920769  -2.18495294 
C    0.18179957  -0.40423705   0.19823965 
N   -0.45927483  -1.32285509   0.94475723 
C   -0.54311461  -0.92816813   2.25557920 
C    0.05830573   0.27633008   2.33240123 
N    0.48972467   0.58331740   1.06493436 
C    1.21835513   1.80195263   0.74946111 
H    0.83312672   2.63377394   1.33247709 
H    1.09322016   2.05923809  -0.30686774 
H    2.27372496   1.67457384   0.98123759 
C   -0.98659826  -2.59377706   0.48038767 
H   -0.99782043  -2.62822154  -0.60985637 
H   -2.01054013  -2.72106139   0.81930867 
H   -0.38478808  -3.41497019   0.86459425 
H   -1.01565041  -1.52223693   3.01884498 
H    0.22845561   0.91585401   3.18212911 
C    0.18392274   1.50434901  -2.90846083 
H   -0.35364971   1.43101070  -3.86805879 
H    0.97346605   2.23786237  -3.10382421 
H   -0.53996384   2.03080380  -2.26482872 
H   -0.76144353  -1.20296977  -2.97330748 
*
