! EnGrad PBEh-3c
%output 
xyzfile=True 
end 
%scf 
maxiter 250 
end
%output
Print[P_Hirshfeld] = 1
end
% maxcore
4000
*xyz 1 1
Sc   0.48534738  -0.33720607  -2.17882525 
C    0.19331565  -0.40761362   0.18294542 
N   -0.45220939  -1.32321592   0.93624983 
C   -0.55321145  -0.92241867   2.24557189 
C    0.05504780   0.28437325   2.32167938 
N    0.49559825   0.57606518   1.05665926 
C    1.22916209   1.78628176   0.74345818 
H    0.86016356   2.61685421   1.34246793 
H    1.08956736   2.05330529  -0.30367925 
H    2.28903795   1.65904358   0.96158410 
C   -0.98221753  -2.59575889   0.47765232 
H   -0.97390733  -2.63828038  -0.60792144 
H   -2.01316652  -2.71360532   0.80424558 
H   -0.39392797  -3.41758099   0.88149754 
H   -1.04099471  -1.51132296   3.01251182 
H    0.20808885   0.93441679   3.17145131 
C    0.17063519   1.56076573  -2.91593187 
H   -0.35448395   1.39839771  -3.84530982 
H    0.97245712   2.23995015  -3.08177829 
H   -0.54405598   1.99547963  -2.23920251 
H   -0.74167771  -1.23410010  -2.95797868 
*
