! EnGrad PBEh-3c
%output 
xyzfile=True 
end 
%scf 
maxiter 250 
end
%output
Print[P_Hirshfeld] = 1
end
% maxcore
4000
*xyz 1 1
Sc   0.49222824  -0.31014415  -2.13638237 
C    0.19507370  -0.40862477   0.18078557 
N   -0.45034014  -1.32370844   0.93025652 
C   -0.55574794  -0.91753145   2.23652753 
C    0.05254715   0.28389790   2.31385203 
N    0.49811065   0.57504775   1.05105570 
C    1.23812826   1.77966036   0.74235867 
H    0.87521211   2.60359088   1.34686391 
H    1.08970061   2.04939085  -0.30072882 
H    2.29770358   1.64970469   0.94564126 
C   -0.98072260  -2.59709412   0.47693578 
H   -0.95812746  -2.64472251  -0.60849101 
H   -2.01415964  -2.70743810   0.79468659 
H   -0.39879582  -3.41863566   0.88956642 
H   -1.05294973  -1.50123904   3.00212362 
H    0.19476919   0.94412340   3.15968893 
C    0.16158334   1.58058993  -2.91617026 
H   -0.36557884   1.38090589  -3.85348470 
H    0.99403058   2.26661793  -3.07446798 
H   -0.56368269   1.99276883  -2.20944450 
H   -0.75026129  -1.27118516  -2.96165890 
*
