! EnGrad PBEh-3c
%output 
xyzfile=True 
end 
%scf 
maxiter 250 
end
%output
Print[P_Hirshfeld] = 1
end
% maxcore
4000
*xyz 1 1
Sc   0.50357865  -0.32269797  -2.10511686 
C    0.19311442  -0.40693900   0.18491014 
N   -0.45353759  -1.32434059   0.93179298 
C   -0.55716992  -0.92175373   2.23192429 
C    0.05468009   0.28836517   2.31111419 
N    0.49681915   0.57573105   1.05455877 
C    1.24193660   1.77817851   0.73908581 
H    0.87815757   2.60015280   1.34906505 
H    1.09207921   2.04968383  -0.29951476 
H    2.30281070   1.64562759   0.93782085 
C   -0.97999335  -2.59752100   0.47331211 
H   -0.95226694  -2.64778510  -0.60933838 
H   -2.01531995  -2.70403825   0.79122014 
H   -0.39952921  -3.41856756   0.89093660 
H   -1.05342913  -1.49471098   2.99230548 
H    0.18930424   0.94430626   3.14999468 
C    0.16332997   1.58366968  -2.91165257 
H   -0.37146413   1.38217948  -3.86269436 
H    0.99803413   2.28313939  -3.07427505 
H   -0.57505478   2.00519412  -2.19975421 
H   -0.75698959  -1.29075986  -2.96530865 
*
