! EnGrad PBEh-3c
%output 
xyzfile=True 
end 
%scf 
maxiter 250 
end
%output
Print[P_Hirshfeld] = 1
end
% maxcore
4000
*xyz 1 1
Sc   0.50762944  -0.36977828  -2.05681034 
C    0.18908046  -0.40610888   0.19979656 
N   -0.46166899  -1.32439919   0.93249350 
C   -0.55558248  -0.91580592   2.22357587 
C    0.04743845   0.28506052   2.30515360 
N    0.49912489   0.57972904   1.05903657 
C    1.25495222   1.77626058   0.73367993 
H    0.89339391   2.59123773   1.35570734 
H    1.09786027   2.05611226  -0.30416736 
H    2.32056002   1.62752441   0.91199724 
C   -0.97996488  -2.60034623   0.46639005 
H   -0.93253789  -2.65994023  -0.61817525 
H   -2.01825372  -2.69396355   0.77493006 
H   -0.40316273  -3.41702852   0.89681747 
H   -1.06294651  -1.48156953   2.96936542 
H    0.17255049   0.95247412   3.12821826 
C    0.16560649   1.57777023  -2.88467565 
H   -0.37127965   1.40439955  -3.85692580 
H    0.96977322   2.32108304  -3.07005366 
H   -0.58951011   2.04418536  -2.19929970 
H   -0.74252718  -1.33645556  -2.95346249 
*
