! EnGrad PBEh-3c
%output 
xyzfile=True 
end 
%scf 
maxiter 250 
end
%output
Print[P_Hirshfeld] = 1
end
% maxcore
4000
*xyz -1 1
Pt  -0.84974842  -0.79691553   0.47399515 
Cl  -0.17783811  -0.40056099   2.68995507 
Cl  -2.65785308  -2.13349229   1.14413933 
Cl  -1.43058504  -1.15442148  -1.76955648 
C    0.90815107   0.99386097  -0.54498600 
H    1.42406187   1.72154853   0.07704600 
H    1.27321657  -0.43107878   0.25746843 
H    1.51732695   0.74064333  -1.41232064 
H   -0.00673181   1.46041205  -0.91572923 
*
