! EnGrad PBEh-3c
%output 
xyzfile=True 
end 
%scf 
maxiter 250 
end
%output
Print[P_Hirshfeld] = 1
end
% maxcore
4000
*xyz -1 1
Pt  -0.81185114  -0.81227698   0.47674461 
Cl  -0.18469578  -0.39810013   2.67432305 
Cl  -2.61585022  -2.09612244   1.13086947 
Cl  -1.41972769  -1.14851370  -1.75522873 
C    0.96492492   0.89969616  -0.50402520 
H    1.42452837   1.70037908   0.09261365 
H    1.15310154  -0.29972957   0.18080718 
H    1.51137883   0.73525957  -1.40448772 
H   -0.02340791   1.41963086  -0.89120954 
*
