! EnGrad PBEh-3c
%output 
xyzfile=True 
end 
%scf 
maxiter 250 
end
%output
Print[P_Hirshfeld] = 1
end
% maxcore
4000
*xyz -1 1
Pt  -0.79134419  -0.81481241   0.46928767 
Cl  -0.18076370  -0.38692529   2.66656308 
Cl  -2.58761781  -2.06814429   1.12341746 
Cl  -1.40226222  -1.14898326  -1.75184340 
C    0.94074711   0.86710589  -0.47505792 
H    1.42508248   1.66745194   0.10714446 
H    1.08216907  -0.21389914   0.12078721 
H    1.50999883   0.72497140  -1.40760066 
H    0.00126768   1.37386156  -0.85173924 
*
