! EnGrad PBEh-3c
%output 
xyzfile=True 
end 
%scf 
maxiter 250 
end
%output
Print[P_Hirshfeld] = 1
end
% maxcore
4000
*xyz -1 1
Pt  -0.76100621  -0.81296279   0.45429665 
Cl  -0.16801837  -0.36253845   2.65560132 
Cl  -2.54092238  -2.02192388   1.11274494 
Cl  -1.36691536  -1.15261586  -1.75308586 
C    0.92018797   0.84266356  -0.46581018 
H    1.42154470   1.59747024   0.13619304 
H    0.97330243  -0.09589790   0.03380756 
H    1.48895742   0.70570678  -1.38704770 
H    0.02830705   1.30159105  -0.78436096 
*
