! EnGrad PBEh-3c
%output 
xyzfile=True 
end 
%scf 
maxiter 250 
end
%output
Print[P_Hirshfeld] = 1
end
% maxcore
4000
*xyz -1 1
Pt  -0.77042763  -0.81384390   0.45741740 
Cl  -0.16796986  -0.36432730   2.65639111 
Cl  -2.54451568  -2.02694684   1.11484267 
Cl  -1.36904292  -1.15225292  -1.75461166 
C    0.93713610   0.86434862  -0.47844550 
H    1.42330988   1.59963511   0.13683397 
H    0.98225245  -0.11688769   0.04815306 
H    1.49160009   0.70482164  -1.38726565 
H    0.01292382   1.30701917  -0.79073831 
*
