! EnGrad PBEh-3c
%output 
xyzfile=True 
end 
%scf 
maxiter 250 
end
%output
Print[P_Hirshfeld] = 1
end
% maxcore
4000
*xyz 0 1
C   -1.62847323   0.19374610  -0.41484292 
C   -1.91955369  -0.82781002  -1.31037247 
C   -1.47772079  -2.11166854  -1.06533209 
C   -0.64826219  -2.36781300   0.00929844 
C   -0.92125471  -0.14072144   0.72116145 
C   -0.34930927  -1.37475963   0.93093756 
H   -2.07318888   1.15143038  -0.66044035 
H   -2.57828329  -0.64622996  -2.15347069 
H   -1.79903245  -2.92326038  -1.71419907 
H    0.30348461  -1.63706350   1.75441999 
H   -0.30233317  -3.38013486   0.18123925 
Pd   1.42378320   1.13649889  -0.05288597 
O    3.03048429   1.14882884  -1.41268074 
O    2.64424171  -0.50923612  -0.08497112 
O    0.36595075   2.87470229   0.07823134 
C    0.06137381   2.99884628   1.26764682 
O    0.50649523   2.17119320   2.13475254 
H   -1.40245504   1.07125323   2.72440076 
C    3.27707111  -0.02103977  -1.05517233 
H    4.13241031  -0.57902320  -1.47293500 
H   -0.64542344   3.77225121   1.59522433 
*
