! EnGrad PBEh-3c
%output 
xyzfile=True 
end 
%scf 
maxiter 250 
end
%output
Print[P_Hirshfeld] = 1
end
% maxcore
4000
*xyz 0 1
C   -1.59157708   0.20828329  -0.38662553 
C   -2.02288479  -0.83798945  -1.21901310 
C   -1.64940334  -2.15085433  -0.96582445 
C   -0.75742622  -2.37894685   0.06844459 
C   -0.81347154   0.02038182   0.81732124 
C   -0.34435627  -1.33165899   0.90585311 
H   -1.89786685   1.20618781  -0.67297462 
H   -2.67201775  -0.64263262  -2.06746245 
H   -2.02406733  -2.97414683  -1.57193013 
H    0.36068704  -1.57903713   1.68544664 
H   -0.40958815  -3.39037634   0.24635855 
Pd   1.30190964   1.01449838  -0.00253892 
O    3.15349329   1.30168238  -1.25956553 
O    2.54683200  -0.52239817  -0.23072399 
O    0.36670802   2.72677404   0.12503224 
C    0.02934482   2.91988904   1.35227534 
O    0.32803594   2.18873568   2.28905766 
H   -0.84045895   0.73133485   1.74367529 
C    3.34983551   0.10624635  -0.99031985 
H    4.22093700  -0.43981889  -1.37656840 
H   -0.64081155   3.80011056   1.49240406 
*
