! EnGrad PBEh-3c
%output 
xyzfile=True 
end 
%scf 
maxiter 250 
end
%output
Print[P_Hirshfeld] = 1
end
% maxcore
4000
*xyz 0 1
C   -1.57201875   0.22329189  -0.38982733 
C   -2.03758048  -0.82078580  -1.18545502 
C   -1.68562264  -2.13751173  -0.92292066 
C   -0.77592569  -2.36534391   0.09909625 
C   -0.77142784  -0.05605651   0.68738190 
C   -0.32990868  -1.32995877   0.91154758 
H   -1.86263720   1.22225262  -0.67691441 
H   -2.69163150  -0.63013496  -2.03057058 
H   -2.06940331  -2.96325358  -1.52500973 
H    0.38377506  -1.57299543   1.68121944 
H   -0.43737707  -3.38026432   0.27273354 
Pd   1.27426551   0.97345656  -0.04391398 
O    3.15982012   1.33162579  -1.17113610 
O    2.52688599  -0.55973612  -0.29205640 
O    0.34164681   2.67396780   0.16941512 
C   -0.01641187   2.90651182   1.39581682 
O    0.21481237   2.20539674   2.34770010 
H   -0.62515138   0.70121952   1.49117356 
C    3.35963891   0.12265763  -0.96524327 
H    4.24069995  -0.40209118  -1.35090193 
H   -0.63111148   3.82239953   1.47429823 
*
