! EnGrad PBEh-3c
%output 
xyzfile=True 
end 
%scf 
maxiter 250 
end
%output
Print[P_Hirshfeld] = 1
end
% maxcore
4000
*xyz 0 1
C   -1.64254824   0.19258018  -0.42140053 
C   -1.93596241  -0.83987469  -1.31131824 
C   -1.49231189  -2.12729000  -1.06881974 
C   -0.66159243  -2.38515984   0.01055325 
C   -0.91150815  -0.08473258   0.77218749 
C   -0.34793798  -1.37923344   0.92659745 
H   -2.05066834   1.16129763  -0.65061560 
H   -2.58539442  -0.64355581  -2.14892639 
H   -1.81790299  -2.92709584  -1.70033892 
H    0.30463763  -1.62454432   1.75147125 
H   -0.30797680  -3.38476707   0.18546807 
Pd   1.39379734   1.13925740   0.00741334 
O    3.03597540   1.15900867  -1.42440240 
O    2.60766249  -0.49936296  -0.10557138 
O    0.38707680   2.86128368   0.00688522 
C    0.06639583   2.95944436   1.33204572 
O    0.49809056   2.18411378   2.13276953 
H   -1.35894898   1.02714893   2.62902044 
C    3.32359640   0.00456464  -1.03070871 
H    4.13711410  -0.57038543  -1.47734611 
H   -0.64183043   3.77562984   1.58071506 
*
