! EnGrad PBEh-3c
%output 
xyzfile=True 
end 
%scf 
maxiter 250 
end
%output
Print[P_Hirshfeld] = 1
end
% maxcore
4000
*xyz 0 1
C   -1.64365788   0.18960297  -0.41284238 
C   -1.94325242  -0.84451494  -1.30670761 
C   -1.50087588  -2.13233182  -1.06492021 
C   -0.67042766  -2.38735865   0.01242779 
C   -0.90863471  -0.06379330   0.79152563 
C   -0.35254083  -1.37144690   0.92412097 
H   -2.03800495   1.16878279  -0.64715003 
H   -2.59177249  -0.64223833  -2.14763486 
H   -1.83265039  -2.93419680  -1.69456202 
H    0.30634213  -1.61839720   1.74933813 
H   -0.31141828  -3.39039334   0.18873156 
Pd   1.37901710   1.13925997   0.03149661 
O    3.04402849   1.16356310  -1.42586344 
O    2.59445632  -0.49351898  -0.11925008 
O    0.39076573   2.85062796   0.01316844 
C    0.06888449   2.95463322   1.31273630 
O    0.49980009   2.17990098   2.14761044 
H   -1.32932638   0.99544808   2.56208853 
C    3.33269705   0.02347236  -1.01583773 
H    4.14464373  -0.56485697  -1.47760246 
H   -0.63864219   3.77493640   1.57266519 
*
