! EnGrad PBEh-3c
%output 
xyzfile=True 
end 
%scf 
maxiter 250 
end
%output
Print[P_Hirshfeld] = 1
end
% maxcore
4000
*xyz 0 1
C   -1.63854585   0.18870789  -0.38985189 
C   -1.95236636  -0.84248734  -1.29073424 
C   -1.51945170  -2.13697721  -1.05301889 
C   -0.68161456  -2.38047340   0.02254645 
C   -0.90796595  -0.05183073   0.80509095 
C   -0.36194693  -1.35191472   0.92440864 
H   -2.01724615   1.17684849  -0.64575610 
H   -2.60377384  -0.64160525  -2.14336964 
H   -1.86168852  -2.94950560  -1.68510777 
H    0.30884369  -1.61001780   1.74098432 
H   -0.32039661  -3.39738080   0.19510097 
Pd   1.36734897   1.12889209   0.04369632 
O    3.06163496   1.18285794  -1.41628724 
O    2.58297295  -0.48746923  -0.13251783 
O    0.38709243   2.83073866   0.06389972 
C    0.07416877   2.95533759   1.27348785 
O    0.49484867   2.18308997   2.15932076 
H   -1.27231803   0.93763330   2.43619928 
C    3.33061295   0.04179854  -1.00751932 
H    4.15839934  -0.54875780  -1.46660215 
H   -0.63036617   3.76748269   1.55703274 
*
