! EnGrad PBEh-3c
%output 
xyzfile=True 
end 
%scf 
maxiter 250 
end
%output
Print[P_Hirshfeld] = 1
end
% maxcore
4000
*xyz 0 1
C   -1.63484931   0.19481488  -0.37009133 
C   -1.97237751  -0.83692928  -1.26500979 
C   -1.55830764  -2.14692470  -1.03207661 
C   -0.70033400  -2.37510595   0.04173857 
C   -0.90150674  -0.02673340   0.83124328 
C   -0.36741566  -1.33558983   0.92638244 
H   -1.97793523   1.18449737  -0.64543195 
H   -2.62346503  -0.64186449  -2.12717587 
H   -1.91476581  -2.96992269  -1.65980131 
H    0.31393227  -1.59483572   1.72154718 
H   -0.34245860  -3.39999376   0.20752394 
Pd   1.35348863   1.10149975   0.05348620 
O    3.09262034   1.22400167  -1.38883746 
O    2.56254240  -0.48137894  -0.15094530 
O    0.39205528   2.79536682   0.08138994 
C    0.07001473   2.94830001   1.30688736 
O    0.47140453   2.20229569   2.16239660 
H   -1.16414414   0.84192514   2.21285538 
C    3.33653053   0.06459491  -1.00696081 
H    4.17927332  -0.51395824  -1.43940534 
H   -0.61846847   3.75667030   1.52729036 
*
