! EnGrad PBEh-3c
%output 
xyzfile=True 
end 
%scf 
maxiter 250 
end
%output
Print[P_Hirshfeld] = 1
end
% maxcore
4000
%pal nprocs 4
end
*xyz 0 1
Pd   0.16646000   0.11331000  -0.00401000 
O    1.61967000   1.28494000   0.94303000 
C    1.75621000   2.45598000   0.65740000 
O    0.72695000   3.15144000   0.22456000 
C    3.07922000   3.15107000   0.77182000 
H    2.99216000   4.14504000   1.21139000 
H    3.50305000   3.25880000  -0.22941000 
H    3.76853000   2.55761000   1.36415000 
N   -1.22191000  -1.16597000  -0.86291000 
C   -0.68051000  -2.54031000  -0.83497000 
H    0.25141000  -2.56570000  -1.39278000 
H   -1.39960000  -3.23081000  -1.29095000 
H   -0.49846000  -2.85376000   0.19023000 
C   -1.56194000  -0.82678000  -2.25105000 
H   -1.86685000   0.21507000  -2.32259000 
H   -2.38352000  -1.46247000  -2.59961000 
H   -0.69918000  -0.98973000  -2.88898000 
C   -2.01128000  -1.01635000   1.41790000 
C   -2.78296000  -1.48668000   2.46926000 
C   -2.32121000  -1.35628000   3.77186000 
C   -1.08820000  -0.76668000   4.00632000 
C   -0.31224000  -0.30592000   2.94786000 
C   -0.76472000  -0.41954000   1.63778000 
H   -0.72168000  -0.67168000   5.02103000 
H    0.65384000   0.13570000   3.16017000 
H   -3.74074000  -1.95780000   2.27836000 
H   -2.91691000  -1.72208000   4.59788000 
H    0.97454000   4.04367000  -0.03954000 
C   -2.43517000  -1.08318000  -0.01333000 
H   -2.96860000  -0.17085000  -0.29465000 
H   -3.10267000  -1.92776000  -0.22920000 
O    1.10359000   0.86001000  -1.71964000 
C    1.79438000   0.11190000  -2.49847000 
O    1.82136000  -1.11101000  -2.48674000 
C    2.64789000   0.88406000  -3.49786000 
H    3.03872000   0.22927000  -4.27327000 
H    3.49687000   1.33877000  -2.98210000 
H    2.08349000   1.69470000  -3.95893000 
*
