! EnGrad PBEh-3c
%output 
xyzfile=True 
end 
%scf 
maxiter 250 
end
%output
Print[P_Hirshfeld] = 1
end
% maxcore
4000
*xyz 0 1
Pd   0.38333006   0.13737801  -0.20007843 
O    1.93917729   1.36232475   0.64305489 
C    1.81403018   2.55634080   0.39027414 
O    0.71550682   3.02172335  -0.12983123 
C    2.89720504   3.55441781   0.65466433 
H    2.54806547   4.48427085   1.10245153 
H    3.36304627   3.81553128  -0.29796036 
H    3.65697538   3.11306589   1.29311079 
N   -1.28528692  -0.89477230  -0.91211728 
C   -0.97425151  -2.25525090  -1.39147346 
H   -0.21752787  -2.25368356  -2.16925138 
H   -1.81811469  -2.75610856  -1.88886444 
H   -0.58475051  -2.86011937  -0.57914673 
C   -1.84145179  -0.17771391  -2.07235644 
H   -1.98046540   0.87173900  -1.82995685 
H   -2.80835329  -0.58976766  -2.38924900 
H   -1.19828477  -0.24649936  -2.94376840 
C   -1.74382684  -1.18291064   1.47983281 
C   -2.25287163  -2.03561633   2.45821453 
C   -1.90659224  -1.90748409   3.79358437 
C   -1.04472209  -0.90037069   4.17710106 
C   -0.64247451   0.02903654   3.22925605 
C   -1.04621165  -0.05854928   1.90400629 
H   -0.78699899  -0.76439399   5.22049419 
H   -0.17284396   0.91181800   3.64725312 
H   -3.01540324  -2.77122249   2.22315888 
H   -2.32774332  -2.56447712   4.54332634 
H   -0.97852460   3.92022083   0.87818325 
C   -2.35364716  -1.03883323   0.11291037 
H   -3.02251585  -0.16955619   0.09110912 
H   -3.04189398  -1.87951003  -0.05348560 
O    1.46871547   0.57152543  -1.90435389 
C    2.18815335  -0.32758396  -2.46291422 
O    2.16153164  -1.48113107  -2.06222737 
C    3.25179681   0.11083215  -3.45277177 
H    3.62975003  -0.72653941  -4.03938666 
H    4.10689042   0.51208139  -2.90258524 
H    2.92057585   0.86978807  -4.16019404 
*
