! EnGrad PBEh-3c
%output 
xyzfile=True 
end 
%scf 
maxiter 250 
end
%output
Print[P_Hirshfeld] = 1
end
% maxcore
4000
*xyz 0 1
Pd   0.14911618   0.24960032  -0.01992613 
O    1.67497239   1.50900950   0.58992660 
C    1.43511745   2.67886261   0.51415424 
O    0.24441158   3.17984993   0.22694761 
C    2.71411852   3.58175695   0.63047721 
H    2.39346493   4.50041788   1.07248780 
H    3.21173747   3.81427503  -0.31286836 
H    3.51824516   3.15662233   1.25629088 
N   -1.36174665  -0.82201303  -0.96313373 
C   -1.05001146  -2.09159164  -1.65287881 
H   -0.32894266  -1.93844008  -2.44243175 
H   -2.00405742  -2.46561921  -2.04169022 
H   -0.67227514  -2.85243024  -0.97416184 
C   -1.95920185   0.09520059  -1.95223199 
H   -2.09929300   1.08845176  -1.53459464 
H   -2.93160953  -0.28099686  -2.27250786 
H   -1.29105961   0.17530877  -2.80160638 
C   -1.68060594  -1.13384505   1.47600993 
C   -1.97664996  -2.14578445   2.38036194 
C   -1.57388894  -2.00922363   3.70410749 
C   -1.10258379  -0.75143363   4.10071975 
C   -0.77335904   0.26019193   3.15606359 
C   -0.84204563  -0.03488667   1.76883359 
H   -0.84421645  -0.62256293   5.15630253 
H   -0.53871403   1.24924687   3.58453141 
H   -2.38580260  -3.09202617   2.01700301 
H   -1.66039571  -2.87630429   4.38213091 
H   -0.32983178   3.22711489   0.66725699 
C   -2.32972843  -1.11237054   0.13454193 
H   -3.05779975  -0.29148353   0.10377513 
H   -2.85125232  -2.04140300  -0.11894741 
O    1.45599513   0.38787180  -1.83526705 
C    2.21752653  -0.55939650  -2.29456784 
O    2.11134834  -1.75919539  -2.07455154 
C    3.39041625  -0.13889893  -3.24337958 
H    3.76985412  -1.02745565  -3.74990735 
H    4.22897063   0.27943554  -2.67681455 
H    3.12740113   0.61193605  -3.98334318 
*
