! EnGrad PBEh-3c
%output 
xyzfile=True 
end 
%scf 
maxiter 250 
end
%output
Print[P_Hirshfeld] = 1
end
% maxcore
4000
*xyz 0 1
Pd   0.20552375   0.26463032  -0.02761449 
O    1.78473902   1.42800822   0.59721373 
C    1.58118336   2.64554093   0.45682407 
O    0.32506754   3.12487501   0.10559853 
C    2.80841914   3.55378654   0.64128026 
H    2.44621896   4.47322717   1.07582863 
H    3.27504855   3.81793154  -0.29648405 
H    3.59229915   3.15376536   1.27418879 
N   -1.32702455  -0.84622119  -0.94652645 
C   -1.00877535  -2.15571707  -1.56988103 
H   -0.27106120  -2.04449856  -2.34631909 
H   -1.95897632  -2.57700163  -1.97364300 
H   -0.64990622  -2.86578998  -0.83159083 
C   -1.92147876  -0.00083560  -1.99595500 
H   -2.05471008   1.01138783  -1.64437006 
H   -2.90015896  -0.39396944  -2.31302999 
H   -1.24746872   0.02536979  -2.85254749 
C   -1.73030175  -1.11787854   1.48262205 
C   -2.09509268  -2.09774270   2.41043059 
C   -1.67708445  -1.99068715   3.73175710 
C   -1.10356783  -0.78586632   4.13440130 
C   -0.73512364   0.20233498   3.18670655 
C   -0.83109115  -0.06890871   1.78752327 
H   -0.81205306  -0.68519101   5.18139084 
H   -0.40492630   1.14968083   3.61215717 
H   -2.61187099  -2.99812882   2.08082148 
H   -1.91031182  -2.78514346   4.44532485 
H   -0.57688248   3.48307802   0.73087849 
C   -2.34329765  -1.09215965   0.13883268 
H   -3.03267977  -0.23739369   0.09621136 
H   -2.91857183  -1.99666410  -0.11335422 
O    1.45107470   0.45760289  -1.86873013 
C    2.21314682  -0.47862307  -2.34838053 
O    2.14070124  -1.66735501  -2.06715344 
C    3.34283461  -0.04879455  -3.33135255 
H    3.71573386  -0.92310916  -3.85213499 
H    4.18863432   0.36621503  -2.76641530 
H    3.05375662   0.70222160  -4.03916467 
*
