! EnGrad PBEh-3c
%output 
xyzfile=True 
end 
%scf 
maxiter 250 
end
%output
Print[P_Hirshfeld] = 1
end
% maxcore
4000
*xyz 0 1
Pd   0.29472653   0.25280425  -0.06589667 
O    1.84938120   1.39246016   0.60727730 
C    1.71133279   2.59442569   0.42124728 
O    0.52867896   3.04938391  -0.03681032 
C    2.85148304   3.53681460   0.65037287 
H    2.50224442   4.47161487   1.08778172 
H    3.32983352   3.81859882  -0.29726343 
H    3.64621415   3.13328999   1.29238617 
N   -1.30736377  -0.87594839  -0.91428331 
C   -0.98581673  -2.22196221  -1.47737787 
H   -0.21299137  -2.15337034  -2.25399826 
H   -1.89574400  -2.68249108  -1.91177801 
H   -0.61776073  -2.87006279  -0.68312448 
C   -1.88041724  -0.10262201  -2.04562295 
H   -2.01293102   0.93967969  -1.74893656 
H   -2.86216392  -0.50876130  -2.35576700 
H   -1.20678221  -0.12517114  -2.90568183 
C   -1.77437159  -1.12084111   1.49819050 
C   -2.19657270  -2.05705724   2.43820465 
C   -1.79125460  -1.95736106   3.76520331 
C   -1.08820376  -0.83576227   4.15912103 
C   -0.69357591   0.12100341   3.21491422 
C   -0.86562190  -0.09331302   1.82395779 
H   -0.79220210  -0.73583886   5.19765677 
H   -0.25516945   1.03085902   3.62530608 
H   -2.84257259  -2.88601618   2.15001983 
H   -2.15344173  -2.66855208   4.50016779 
H   -0.80541925   3.72950194   0.81913049 
C   -2.35282159  -1.06355056   0.11133162 
H   -3.01074055  -0.19505848   0.09480041 
H   -2.98582259  -1.94300776  -0.09599831 
O    1.45209369   0.51704476  -1.90231728 
C    2.20783887  -0.39624011  -2.40044752 
O    2.15801047  -1.56572075  -2.06546641 
C    3.28522713   0.03800389  -3.38925622 
H    3.66262978  -0.81813172  -3.95756388 
H    4.14036318   0.45177059  -2.84978679 
H    2.97261204   0.80435716  -4.10631793 
*
