! EnGrad PBEh-3c
%output 
xyzfile=True 
end 
%scf 
maxiter 250 
end
%output
Print[P_Hirshfeld] = 1
end
% maxcore
4000
*xyz 0 1
Pd   0.15085637   0.26647269  -0.02265003 
O    1.70097185   1.47353471   0.58744102 
C    1.44848084   2.68890666   0.49640803 
O    0.13578573   3.20128490   0.27107673 
C    2.72818898   3.57780706   0.63093151 
H    2.38538722   4.48806810   1.06795693 
H    3.21356833   3.81784886  -0.30731089 
H    3.52630197   3.16619808   1.25877593 
N   -1.35959966  -0.81794884  -0.97219423 
C   -1.05477355  -2.08380326  -1.66936386 
H   -0.34117734  -1.92511601  -2.45860762 
H   -2.01892645  -2.45492447  -2.05032385 
H   -0.67952202  -2.85305349  -0.99840275 
C   -1.96597391   0.10905147  -1.94560076 
H   -2.10245764   1.09651662  -1.52029128 
H   -2.93898015  -0.26418944  -2.26590673 
H   -1.29863824   0.19417032  -2.79468872 
C   -1.68113837  -1.12233909   1.47626328 
C   -1.96218365  -2.15098023   2.37769848 
C   -1.55309728  -2.01555167   3.69875695 
C   -1.10633232  -0.74622543   4.10644754 
C   -0.79290083   0.27929544   3.16510681 
C   -0.84809292  -0.02606255   1.77909187 
H   -0.84129874  -0.62414623   5.16475245 
H   -0.57623603   1.27196580   3.59915318 
H   -2.34857123  -3.11128223   2.00760722 
H   -1.62964187  -2.89494950   4.37934876 
H   -0.32548590   3.20750706   0.63202760 
C   -2.32785471  -1.11623429   0.14253838 
H   -3.06040081  -0.29559377   0.10233446 
H   -2.83978735  -2.05094864  -0.12093806 
O    1.46398936   0.38521532  -1.83683117 
C    2.22068652  -0.57229871  -2.29640842 
O    2.10422547  -1.77542628  -2.08839468 
C    3.40618737  -0.15096864  -3.24200217 
H    3.78354862  -1.04246134  -3.73665467 
H    4.23726656   0.26796653  -2.66433155 
H    3.14718639   0.59701578  -3.97559051 
*
