! EnGrad PBEh-3c
%output 
xyzfile=True 
end 
%scf 
maxiter 250 
end
%output
Print[P_Hirshfeld] = 1
end
% maxcore
4000
*xyz 0 1
Pd   0.19108577   0.26485791  -0.02946473 
O    1.75342360   1.44730796   0.59336605 
C    1.53859083   2.65598416   0.47118843 
O    0.26087042   3.15136797   0.16415425 
C    2.77569560   3.56245259   0.63753368 
H    2.42528112   4.47966184   1.07358611 
H    3.25374885   3.81809819  -0.30163516 
H    3.56916680   3.15694350   1.26965441 
N   -1.33924157  -0.83626547  -0.95279110 
C   -1.02778070  -2.13070366  -1.60426829 
H   -0.29544871  -2.00285064  -2.38723408 
H   -1.97912914  -2.53410250  -2.00132958 
H   -0.65963534  -2.86065168  -0.89004252 
C   -1.93683044   0.03677609  -1.97895629 
H   -2.07155020   1.04205193  -1.60001923 
H   -2.91390351  -0.34835589  -2.29678647 
H   -1.26587932   0.08469358  -2.83260116 
C   -1.71315722  -1.12026743   1.48222378 
C   -2.04644158  -2.11654225   2.39876928 
C   -1.63355909  -1.99828253   3.72061582 
C   -1.10326471  -0.77323404   4.12464242 
C   -0.75705715   0.22737570   3.18027942 
C   -0.84203715  -0.05240658   1.78772763 
H   -0.82293234  -0.66352209   5.17563181 
H   -0.46520150   1.19210776   3.60803071 
H   -2.51919586  -3.03707450   2.05538391 
H   -1.81115722  -2.82172177   4.42182405 
H   -0.48936735   3.38642391   0.69606332 
C   -2.33736936  -1.09944971   0.13588536 
H   -3.04252747  -0.25896391   0.09884980 
H   -2.89075566  -2.01545952  -0.11479174 
O    1.45743340   0.43066412  -1.85819153 
C    2.21591727  -0.51143579  -2.33154692 
O    2.12612112  -1.70386533  -2.07643670 
C    3.36485575  -0.08548427  -3.29635486 
H    3.74045444  -0.96537343  -3.81207257 
H    4.20512810   0.33151953  -2.72994710 
H    3.08666457   0.66656904  -4.01833475 
*
