! EnGrad PBEh-3c
%output 
xyzfile=True 
end 
%scf 
maxiter 250 
end
%output
Print[P_Hirshfeld] = 1
end
% maxcore
4000
*xyz 0 1
Pd   0.17389467   0.26924810  -0.01758581 
O    1.74784372   1.46253557   0.58980912 
C    1.53413982   2.64762035   0.47801917 
O    0.22406329   3.16491639   0.17640812 
C    2.77403645   3.56299311   0.63614526 
H    2.42063810   4.47671720   1.07113560 
H    3.24989594   3.81848376  -0.29980297 
H    3.56751607   3.16045360   1.26823681 
N   -1.33858030  -0.83144114  -0.95366684 
C   -1.02852145  -2.12430100  -1.61333605 
H   -0.29777168  -1.99244460  -2.39556573 
H   -1.98724629  -2.52587661  -2.00549969 
H   -0.66380104  -2.86232160  -0.90304348 
C   -1.94063797   0.04514597  -1.97417811 
H   -2.07514539   1.04871066  -1.59162383 
H   -2.91910303  -0.33816708  -2.29313283 
H   -1.26838151   0.09851740  -2.82776939 
C   -1.70910548  -1.11913488   1.48181355 
C   -2.04027780  -2.11621016   2.39614591 
C   -1.62154620  -2.00433608   3.71624944 
C   -1.10771199  -0.76382217   4.12234434 
C   -0.76052866   0.23518471   3.17576472 
C   -0.82613909  -0.05310227   1.77748270 
H   -0.82291615  -0.66035017   5.17385040 
H   -0.47781012   1.20736899   3.60763585 
H   -2.50019297  -3.05169416   2.04779889 
H   -1.79136454  -2.83758577   4.41840019 
H   -0.46514009   3.36220521   0.68575422 
C   -2.33728166  -1.10262281   0.13953154 
H   -3.04342572  -0.26085173   0.09821484 
H   -2.88592582  -2.02233822  -0.11861498 
O    1.45569416   0.42421670  -1.85460056 
C    2.21583693  -0.51791766  -2.32692127 
O    2.12832873  -1.71213982  -2.07210887 
C    3.37044818  -0.09343976  -3.29258489 
H    3.74391121  -0.97527644  -3.80276621 
H    4.21047717   0.32409476  -2.72505710 
H    3.09308796   0.65657530  -4.01119631 
*
