! EnGrad PBEh-3c
%output 
xyzfile=True 
end 
%scf 
maxiter 250 
end
%output
Print[P_Hirshfeld] = 1
end
% maxcore
4000
*xyz 0 1
Pd   0.35220836   0.23067921  -0.10024458 
O    1.88065162   1.41104333   0.60811780 
C    1.76677288   2.52174204   0.41809830 
O    0.61539090   3.03194290  -0.09602790 
C    2.87215770   3.54859211   0.65367949 
H    2.52780312   4.47310755   1.09325741 
H    3.35269978   3.81941307  -0.30031913 
H    3.66494984   3.12010970   1.30032535 
N   -1.30898582  -0.90022016  -0.92103608 
C   -0.97999438  -2.25294347  -1.43808269 
H   -0.19901540  -2.20163593  -2.21218101 
H   -1.85855287  -2.71948063  -1.88742867 
H   -0.60189295  -2.86772149  -0.62164839 
C   -1.86398025  -0.14391156  -2.07168579 
H   -1.99547376   0.90957375  -1.79212497 
H   -2.83563803  -0.55565204  -2.37002842 
H   -1.19540489  -0.19066689  -2.92492776 
C   -1.79114744  -1.12925418   1.51159698 
C   -2.22548824  -2.04402745   2.44743497 
C   -1.84916585  -1.93870747   3.77661623 
C   -1.06950997  -0.86267874   4.16589589 
C   -0.68156605   0.07755566   3.22427515 
C   -0.91495241  -0.09272088   1.86027474 
H   -0.78568393  -0.75466089   5.20925239 
H   -0.19777460   0.97528263   3.63415408 
H   -2.94024483  -2.83196074   2.18414814 
H   -2.25368769  -2.61329618   4.52362270 
H   -0.89720690   3.83101257   0.85194507 
C   -2.35670826  -1.05227585   0.10487924 
H   -3.00549518  -0.18113535   0.09643254 
H   -3.01144511  -1.91269616  -0.08313543 
O    1.45445189   0.55525256  -1.92264770 
C    2.20408140  -0.36470085  -2.40927927 
O    2.16320514  -1.52918895  -2.07353096 
C    3.26650251   0.07653341  -3.41784623 
H    3.64326388  -0.77253056  -4.00349071 
H    4.11674637   0.48520108  -2.88183059 
H    2.94053798   0.84928659  -4.14007913 
*
