9
Coordinates from ORCA-job reaction-6-ieip_optts_Compound_2_IRC_B E -1539.028502867013
  Pt     -0.545283     -0.658885      0.398201
  Cl      0.110314      0.078234      2.504871
  Cl     -2.408179     -1.720408      1.324511
  Cl     -1.131863     -1.369144     -1.741817
  C       0.638346      0.847679     -0.491007
  H       1.383782      1.254562      0.190754
  H       0.922265     -0.822098      0.037170
  H       1.102050      0.574355     -1.439014
  H      -0.118492      1.611584     -0.689579
9
Coordinates from ORCA-job reaction-6-ieip_optts_Compound_2_IRC_B E -1539.028789135680
  Pt     -0.536956     -0.656253      0.394726
  Cl      0.110587      0.077948      2.504433
  Cl     -2.410350     -1.719910      1.325029
  Cl     -1.132018     -1.368237     -1.741455
  C       0.634920      0.848565     -0.490310
  H       1.382548      1.253946      0.190235
  H       0.921790     -0.826965      0.038815
  H       1.100470      0.574391     -1.437472
  H      -0.118738      1.613152     -0.689862
9
Coordinates from ORCA-job reaction-6-ieip_optts_Compound_2_IRC_B E -1539.028997372901
  Pt     -0.530128     -0.654237      0.391980
  Cl      0.111483      0.077682      2.503681
  Cl     -2.411902     -1.718260      1.324967
  Cl     -1.131812     -1.366742     -1.741178
  C       0.631194      0.850338     -0.489783
  H       1.380717      1.253469      0.189732
  H       0.923450     -0.835375      0.041007
  H       1.098043      0.574548     -1.435640
  H      -0.119719      1.616394     -0.690484
9
Coordinates from ORCA-job reaction-6-ieip_optts_Compound_2_IRC_B E -1539.029233566355
  Pt     -0.523728     -0.653095      0.389800
  Cl      0.113294      0.077472      2.502641
  Cl     -2.412789     -1.715136      1.324195
  Cl     -1.131116     -1.364529     -1.741182
  C       0.626010      0.853544     -0.489426
  H       1.378438      1.253575      0.189611
  H       0.926325     -0.848337      0.044333
  H       1.094738      0.574872     -1.434102
  H      -0.121106      1.621186     -0.691324
9
Coordinates from ORCA-job reaction-6-ieip_optts_Compound_2_IRC_B E -1539.029476716754
  Pt     -0.519831     -0.652926      0.388763
  Cl      0.115884      0.077371      2.501621
  Cl     -2.412808     -1.711260      1.322883
  Cl     -1.129889     -1.362139     -1.741633
  C       0.621848      0.857077     -0.489441
  H       1.375777      1.254414      0.189658
  H       0.929714     -0.863333      0.048195
  H       1.090967      0.575661     -1.433034
  H      -0.122926      1.626619     -0.692144
9
Coordinates from ORCA-job reaction-6-ieip_optts_Compound_2_IRC_B E -1539.029714702045
  Pt     -0.515033     -0.652469      0.387353
  Cl      0.118784      0.077264      2.500711
  Cl     -2.413016     -1.707464      1.321643
  Cl     -1.128458     -1.359827     -1.742334
  C       0.618099      0.860111     -0.489340
  H       1.373006      1.255717      0.189730
  H       0.931675     -0.878564      0.052534
  H       1.087118      0.576817     -1.432337
  H      -0.124831      1.631860     -0.692781
9
Coordinates from ORCA-job reaction-6-ieip_optts_Compound_2_IRC_B E -1539.029942499194
  Pt     -0.512242     -0.651932      0.386469
  Cl      0.122080      0.077131      2.499756
  Cl     -2.413114     -1.703673      1.320354
  Cl     -1.126647     -1.357560     -1.743210
  C       0.614755      0.863367     -0.489414
  H       1.370262      1.257406      0.189731
  H       0.934048     -0.894149      0.056853
  H       1.083348      0.578352     -1.431942
  H      -0.126581      1.636478     -0.693118
9
Coordinates from ORCA-job reaction-6-ieip_optts_Compound_2_IRC_B E -1539.030160494030
  Pt     -0.507868     -0.651191      0.385060
  Cl      0.125516      0.076952      2.498788
  Cl     -2.413613     -1.700001      1.319214
  Cl     -1.124732     -1.355315     -1.744208
  C       0.611554      0.866047     -0.489300
  H       1.367657      1.259379      0.189754
  H       0.934726     -0.909573      0.061564
  H       1.079672      0.580137     -1.431796
  H      -0.128579      1.641005     -0.693324
9
Coordinates from ORCA-job reaction-6-ieip_optts_Compound_2_IRC_B E -1539.030364903258
  Pt     -0.505757     -0.650517      0.384276
  Cl      0.129216      0.076734      2.497725
  Cl     -2.414012     -1.696261      1.318001
  Cl     -1.122546     -1.353049     -1.745286
  C       0.608694      0.869145     -0.489403
  H       1.365100      1.261482      0.189628
  H       0.936299     -0.925217      0.066049
  H       1.076090      0.582178     -1.431706
  H      -0.130449      1.644994     -0.693283
9
Coordinates from ORCA-job reaction-6-ieip_optts_Compound_2_IRC_B E -1539.030557360800
  Pt     -0.501854     -0.649705      0.382928
  Cl      0.133022      0.076457      2.496637
  Cl     -2.414850     -1.692546      1.316911
  Cl     -1.120318     -1.350754     -1.746486
  C       0.605711      0.871731     -0.489261
  H       1.362730      1.263817      0.189569
  H       0.936191     -0.940712      0.070905
  H       1.072613      0.584404     -1.431880
  H      -0.132544      1.648935     -0.693112
9
Coordinates from ORCA-job reaction-6-ieip_optts_Compound_2_IRC_B E -1539.030732591171
  Pt     -0.500246     -0.649007      0.382216
  Cl      0.137024      0.076121      2.495465
  Cl     -2.415621     -1.688727      1.315733
  Cl     -1.117902     -1.348421     -1.747755
  C       0.603268      0.874636     -0.489358
  H       1.360380      1.266182      0.189335
  H       0.937037     -0.956249      0.075441
  H       1.069195      0.586864     -1.431998
  H      -0.134584      1.652408     -0.692702
9
Coordinates from ORCA-job reaction-6-ieip_optts_Compound_2_IRC_B E -1539.030893734747
  Pt     -0.496860     -0.648216      0.380943
  Cl      0.141132      0.075690      2.494262
  Cl     -2.416881     -1.684849      1.314643
  Cl     -1.115481     -1.346019     -1.749166
  C       0.600700      0.877035     -0.489195
  H       1.358196      1.268733      0.189161
  H       0.936236     -0.971632      0.080311
  H       1.065849      0.589515     -1.432356
  H      -0.136876      1.655858     -0.692131
9
Coordinates from ORCA-job reaction-6-ieip_optts_Compound_2_IRC_B E -1539.031035649151
  Pt     -0.495547     -0.647556      0.380228
  Cl      0.145387      0.075153      2.492985
  Cl     -2.418157     -1.680807      1.313442
  Cl     -1.112953     -1.343554     -1.750656
  C       0.598510      0.879727     -0.489220
  H       1.356091      1.271273      0.188874
  H       0.936276     -0.986943      0.084827
  H       1.062581      0.592360     -1.432709
  H      -0.139099      1.658835     -0.691286
9
Coordinates from ORCA-job reaction-6-ieip_optts_Compound_2_IRC_B E -1539.031161482610
  Pt     -0.492794     -0.646857      0.379037
  Cl      0.149757      0.074446      2.491666
  Cl     -2.419981     -1.676591      1.312264
  Cl     -1.110456     -1.340977     -1.752319
  C       0.596175      0.882060     -0.489039
  H       1.354126      1.273927      0.188634
  H       0.934874     -1.002095      0.089571
  H       1.059335      0.595420     -1.433249
  H      -0.141521      1.661693     -0.690189
9
Coordinates from ORCA-job reaction-6-ieip_optts_Compound_2_IRC_B E -1539.031267181191
  Pt     -0.491795     -0.646309      0.378277
  Cl      0.154235      0.073534      2.490281
  Cl     -2.421984     -1.672104      1.310927
  Cl     -1.107944     -1.338294     -1.754095
  C       0.594140      0.884509     -0.488941
  H       1.352288      1.276532      0.188353
  H       0.934084     -1.017061      0.093923
  H       1.056146      0.598672     -1.433842
  H      -0.143987      1.664197     -0.688773
9
Coordinates from ORCA-job reaction-6-ieip_optts_Compound_2_IRC_B E -1539.031354441235
  Pt     -0.489693     -0.645762      0.377097
  Cl      0.158761      0.072287      2.488862
  Cl     -2.424708     -1.667310      1.309514
  Cl     -1.105587     -1.335471     -1.756087
  C       0.592082      0.886676     -0.488678
  H       1.350513      1.279067      0.188079
  H       0.932018     -1.031627      0.098271
  H       1.052876      0.602174     -1.434490
  H      -0.146623      1.666483     -0.686964
