! EnGrad PBEh-3c
%output 
xyzfile=True 
end 
%scf 
maxiter 250 
end
%output
Print[P_Hirshfeld] = 1
end
% maxcore
4000
*xyz 0 1
Lu   0.14470363  -0.11105107   0.11415780 
C    0.46301453   0.68921085   2.55406027 
C    1.51356746  -0.19925527   2.23628432 
C    2.34662629   0.43561308   1.29013628 
C    1.75628548   1.66825013   0.93975578 
C    0.60215160   1.82490085   1.73986445 
H    2.14142866   2.38720724   0.22910150 
H    0.03987418   2.74310084   1.82982845 
H   -0.22458249   0.57763053   3.37906625 
H    1.69242838  -1.15889257   2.70393085 
H    3.26032757   0.02820365   0.88179711 
C    0.81808405  -0.09885056  -2.35206982 
C   -0.42488197  -0.76674577  -2.31478494 
C    1.10207010  -2.06630817  -1.24078931 
C    1.77127969  -0.91965478  -1.71692877 
H    1.01215159   0.84552564  -2.84043328 
C   -0.25415918  -1.97215905  -1.62352814 
H   -1.29074730  -0.49887844  -2.89942521 
H    2.82188536  -0.70827236  -1.58283452 
H    1.55966725  -2.89248471  -0.71284103 
H   -0.99129224  -2.75662386  -1.54907421 
C   -2.07851209  -1.55074374   1.20311062 
H   -2.29205106  -1.27265978   2.23731529 
H   -1.97402748  -2.65012824   1.21045163 
H   -3.00664142  -1.46045815   0.62665527 
C   -1.92171824   2.09879194  -0.96359384 
H   -2.57462566   0.58942219   0.31970826 
H   -1.03550678   2.62078409  -1.32809107 
H   -2.54754930   2.88142975  -0.53124563 
H   -2.42926059   1.69310595  -1.83958952 
*
