! EnGrad PBEh-3c
%output 
xyzfile=True 
end 
%scf 
maxiter 250 
end
%output
Print[P_Hirshfeld] = 1
end
% maxcore
4000
*xyz 0 1
Lu  -0.03399251  -0.11919569   0.13072015 
C    0.46991327   0.73570428   2.54851685 
C    1.50674932  -0.17386595   2.24478191 
C    2.32832043   0.41288751   1.26515986 
C    1.79215169   1.67878774   0.94766980 
C    0.65059068   1.86987817   1.74639380 
H    2.20014116   2.38627991   0.24604030 
H    0.04264480   2.77641902   1.78342340 
H   -0.25851917   0.61349099   3.33256794 
H    1.64296093  -1.14586296   2.69361259 
H    3.25273576   0.00203533   0.88380745 
C    0.85622148  -0.09935866  -2.38269213 
C   -0.38847123  -0.76098443  -2.37743718 
C    1.08827761  -2.04841667  -1.22859109 
C    1.77627255  -0.90438635  -1.68846101 
H    1.06716649   0.84628200  -2.87523932 
C   -0.24501833  -1.96009142  -1.67653424 
H   -1.28067693  -0.44559337  -2.91007514 
H    2.83018666  -0.71612045  -1.57657902 
H    1.52770120  -2.87772841  -0.69360360 
H   -1.01570804  -2.71221303  -1.53523641 
C   -2.11111941  -1.53136847   1.19486684 
H   -2.27805150  -1.30232394   2.24899758 
H   -1.92544250  -2.62894979   1.16877599 
H   -3.09811159  -1.45915248   0.72046273 
C   -1.97589818   1.98673066  -0.88151073 
H   -2.30693831   0.63457547   0.18281169 
H   -1.05577514   2.50234107  -1.24125907 
H   -2.57734721   2.80850997  -0.43316713 
H   -2.48084563   1.63351137  -1.81061106 
*
