! EnGrad PBEh-3c
%output 
xyzfile=True 
end 
%scf 
maxiter 250 
end
%output
Print[P_Hirshfeld] = 1
end
% maxcore
4000
*xyz 0 1
Lu  -0.04793176  -0.11528906   0.12944068 
C    0.46932616   0.74137515   2.54701371 
C    1.50189893  -0.17069307   2.24333296 
C    2.32669642   0.41115923   1.26276444 
C    1.79778859   1.67783925   0.94617289 
C    0.65314816   1.88335620   1.74507458 
H    2.21256637   2.38734778   0.24813029 
H    0.04863302   2.78102247   1.77551925 
H   -0.26449674   0.62236246   3.32493095 
H    1.63305528  -1.14397365   2.69218792 
H    3.25034665  -0.00334309   0.88440385 
C    0.86403059  -0.09529178  -2.38772439 
C   -0.38696508  -0.75558126  -2.38958652 
C    1.08699694  -2.04386361  -1.22720099 
C    1.77600276  -0.90371522  -1.68526728 
H    1.07791224   0.84360049  -2.88123828 
C   -0.24785838  -1.96078682  -1.68075681 
H   -1.27487483  -0.43711551  -2.91424843 
H    2.83304338  -0.71760963  -1.57414420 
H    1.52120172  -2.87477918  -0.68916542 
H   -1.01795283  -2.70129287  -1.53583163 
C   -2.11952049  -1.52962366   1.19398064 
H   -2.27399786  -1.30830275   2.25410928 
H   -1.92071963  -2.62216182   1.15979080 
H   -3.11763197  -1.46068592   0.73763721 
C   -1.98805990   1.96531462  -0.86992681 
H   -2.26878191   0.63632927   0.16349990 
H   -1.06109026   2.48397781  -1.22879592 
H   -2.57656688   2.78637716  -0.41805768 
H   -2.48585506   1.62596124  -1.79537900 
*
