! EnGrad PBEh-3c
%output 
xyzfile=True 
end 
%scf 
maxiter 250 
end
%output
Print[P_Hirshfeld] = 1
end
% maxcore
4000
*xyz 0 1
Lu  -0.09739216  -0.08851841   0.11644972 
C    0.46458081   0.78004978   2.53046182 
C    1.47477464  -0.15842296   2.23482982 
C    2.31928241   0.40371648   1.25393557 
C    1.81815102   1.68041048   0.93765839 
C    0.67689020   1.92320423   1.73605985 
H    2.27509493   2.39134324   0.25869773 
H    0.07546832   2.81639628   1.73819589 
H   -0.29539617   0.66707639   3.28975711 
H    1.58319495  -1.13373274   2.68470755 
H    3.23797314  -0.03038904   0.88751013 
C    0.89150050  -0.08781541  -2.40633954 
C   -0.36453910  -0.73862951  -2.43377096 
C    1.07209335  -2.02811759  -1.22005646 
C    1.78073717  -0.89447563  -1.67496886 
H    1.13432519   0.83570861  -2.91466116 
C   -0.25053756  -1.93640864  -1.70613815 
H   -1.25145762  -0.39305642  -2.94347716 
H    2.84385194  -0.72638861  -1.56103161 
H    1.48897280  -2.85805150  -0.66707619 
H   -1.03700593  -2.65548561  -1.53963645 
C   -2.17184069  -1.51552025   1.19173143 
H   -2.25161243  -1.33810007   2.27902904 
H   -1.90084821  -2.58750597   1.11218731 
H   -3.21290762  -1.47069698   0.82435272 
C   -2.01955661   1.85971594  -0.80736411 
H   -2.10023171   0.62931640   0.08056529 
H   -1.09429953   2.39610922  -1.17208802 
H   -2.57296758   2.67580609  -0.34102049 
H   -2.51463809   1.58491748  -1.72574552 
*
