! EnGrad PBEh-3c
%output 
xyzfile=True 
end 
%scf 
maxiter 250 
end
%output
Print[P_Hirshfeld] = 1
end
% maxcore
4000
*xyz 0 1
Lu  -0.08455197  -0.07601000   0.10736511 
C    0.45846735   0.78515844   2.52808940 
C    1.46643586  -0.15626934   2.22778904 
C    2.31605876   0.40349352   1.25515092 
C    1.82269008   1.68060403   0.93091452 
C    0.67729199   1.93153069   1.72857837 
H    2.28845859   2.39137214   0.26119717 
H    0.08606029   2.82520372   1.73180991 
H   -0.30202951   0.67836754   3.28018927 
H    1.57219318  -1.13176794   2.68384635 
H    3.23410856  -0.03661189   0.88780860 
C    0.89852099  -0.08179418  -2.40908463 
C   -0.36545666  -0.72934270  -2.44166657 
C    1.07066830  -2.02117627  -1.21941595 
C    1.78072541  -0.89562564  -1.67332428 
H    1.14703125   0.83111829  -2.92174272 
C   -0.25619183  -1.93414451  -1.70504107 
H   -1.24253569  -0.38494346  -2.95211312 
H    2.84558471  -0.72783639  -1.55678016 
H    1.48148144  -2.85381071  -0.66155825 
H   -1.03932691  -2.64259557  -1.54322476 
C   -2.19229922  -1.50528883   1.19286091 
H   -2.24461362  -1.34145286   2.28160894 
H   -1.89725377  -2.56866154   1.09478385 
H   -3.23455896  -1.47471812   0.84442774 
C   -2.00920456   1.83232396  -0.79169637 
H   -2.08842443   0.60779763   0.07772108 
H   -1.09949175   2.38123262  -1.16598885 
H   -2.56710251   2.64346835  -0.32136330 
H   -2.51990363   1.57332217  -1.70908656 
*
