! EnGrad PBEh-3c
%output 
xyzfile=True 
end 
%scf 
maxiter 250 
end
%output
Print[P_Hirshfeld] = 1
end
% maxcore
4000
*xyz 0 1
Lu   0.03654762   0.00821482   0.03892682 
C    0.42977337   0.83291793   2.47213727 
C    1.39216545  -0.15547002   2.19840267 
C    2.29710664   0.39227139   1.23476816 
C    1.83131174   1.68115256   0.90462814 
C    0.68371057   1.94072679   1.67185774 
H    2.36486094   2.38404436   0.26678379 
H    0.14237260   2.89179134   1.69127059 
H   -0.37316010   0.73700757   3.21558340 
H    1.50810313  -1.10816496   2.67501724 
H    3.18746346  -0.07594519   0.88312572 
C    0.91874590  -0.07523056  -2.41112191 
C   -0.33473943  -0.68944447  -2.44847946 
C    1.03302780  -1.99553138  -1.19405530 
C    1.78344723  -0.87328510  -1.66089661 
H    1.23107385   0.81934984  -2.96921284 
C   -0.26415408  -1.85618087  -1.71216338 
H   -1.20876482  -0.32144590  -3.00839368 
H    2.83941052  -0.72861548  -1.51757284 
H    1.43241929  -2.81448356  -0.62933502 
H   -1.08208874  -2.58347226  -1.55231917 
C   -2.28701754  -1.35805568   1.16336278 
H   -2.20070084  -1.30095007   2.25919675 
H   -1.83338338  -2.33251456   0.92039915 
H   -3.36833933  -1.47941277   0.97092863 
C   -1.94464739   1.61101278  -0.68154363 
H   -2.05147586   0.41455087   0.07737391 
H   -1.09543198   2.21821856  -1.08916900 
H   -2.50867012   2.38114111  -0.14435316 
H   -2.53904134   1.44981888  -1.58633774 
*
