! EnGrad PBEh-3c
%output 
xyzfile=True 
end 
%scf 
maxiter 250 
end
%output
Print[P_Hirshfeld] = 1
end
% maxcore
4000
*xyz 0 1
Pd   0.73313039   0.66076850  -0.58194243 
O    2.37051585   1.71130230   0.14955419 
C    1.71404562   2.77619668   0.19306532 
O    0.48018208   2.71063903  -0.09090294 
C    2.36340017   4.07955970   0.50706884 
H    1.67049686   4.75085562   1.00920461 
H    2.67764628   4.55296367  -0.42481697 
H    3.25026038   3.93750251   1.12006654 
N   -1.12704411  -0.12482871  -1.10738539 
C   -1.21731991  -0.55036595  -2.51724826 
H   -0.93256191   0.26149885  -3.18262729 
H   -2.23620643  -0.86423722  -2.77171723 
H   -0.56117307  -1.39044176  -2.71400844 
C   -2.08591853   0.97901669  -0.95502965 
H   -2.06040149   1.39008293   0.04854454 
H   -3.10440941   0.64351520  -1.17796028 
H   -1.84195967   1.78935675  -1.63960452 
C   -1.39873721  -1.03365901   1.22356015 
C   -0.26311832  -1.46243219   1.90930281 
C   -0.17466094  -1.39313715   3.28995334 
C   -1.22896949  -0.87759160   4.02267433 
C   -2.40911816  -0.55669669   3.37060011 
C   -2.46650380  -0.54585188   1.98015854 
H   -1.16366179  -0.83506182   5.10224036 
H   -3.25460619  -0.26691698   3.98323774 
H    0.56301580  -1.91680717   1.37821134 
H    0.71917453  -1.73168325   3.79711133 
H   -3.76449284  -0.23865726   1.48208938 
C   -1.49967591  -1.28145907  -0.25745899 
H   -2.53664283  -1.56701656  -0.47502823 
H   -0.86863769  -2.11886503  -0.55672120 
O    1.64689302  -1.03885588  -1.02194758 
C    2.25077561  -0.99420188  -2.17241470 
O    2.08921863  -0.12459328  -3.00638050 
C    3.22079034  -2.11940481  -2.43794098 
H    2.79520803  -3.08504670  -2.16910151 
H    4.11457590  -1.98072693  -1.82731389 
H    3.53648848  -2.14471967  -3.47907420 
*
