! EnGrad PBEh-3c
%output 
xyzfile=True 
end 
%scf 
maxiter 250 
end
%output
Print[P_Hirshfeld] = 1
end
% maxcore
4000
*xyz 0 1
Pd   0.77286246   0.65265638  -0.56645970 
O    2.34398748   1.65364516   0.15458809 
C    1.68032774   2.73826062   0.20319043 
O    0.45430365   2.68138771  -0.07572005 
C    2.38128771   4.03498911   0.52258373 
H    1.71200879   4.73662414   1.01726579 
H    2.70921347   4.50190096  -0.41102715 
H    3.26893562   3.88010382   1.13712642 
N   -1.15541332  -0.14705052  -1.14121659 
C   -1.21763326  -0.66439475  -2.52625132 
H   -0.92447935   0.12525157  -3.21242451 
H   -2.25152933  -0.96615605  -2.74333923 
H   -0.55400520  -1.51431128  -2.65942684 
C   -2.10686287   0.96528774  -1.02817952 
H   -2.07115635   1.40002123  -0.03360237 
H   -3.12270958   0.60873401  -1.23992265 
H   -1.83102459   1.71872232  -1.76210278 
C   -1.46906672  -1.02690351   1.26461620 
C   -0.34632357  -1.49666642   1.91703081 
C   -0.20268290  -1.40021519   3.29182998 
C   -1.26516741  -0.90392568   4.02818395 
C   -2.38814524  -0.44533625   3.43481193 
C   -2.56812770  -0.51449595   2.01077871 
H   -1.17083615  -0.82053437   5.09632144 
H   -3.25769597  -0.19386884   3.99645495 
H    0.45082498  -1.97914184   1.36143681 
H    0.67878586  -1.81704588   3.79938457 
H   -3.29013705   0.07304980   1.64497505 
C   -1.57246995  -1.24715087  -0.21953630 
H   -2.59866126  -1.52875060  -0.45668785 
H   -0.95333575  -2.12011062  -0.47793728 
O    1.66176121  -1.04613632  -1.05316209 
C    2.24921003  -0.94591187  -2.21617709 
O    2.02377510  -0.06338891  -3.02291479 
C    3.27948390  -2.03757872  -2.46438471 
H    2.90271083  -3.03030924  -2.21823999 
H    4.16466290  -1.85986091  -1.84920705 
H    3.57827543  -2.01124249  -3.51083164 
*
