! EnGrad PBEh-3c
%output 
xyzfile=True 
end 
%scf 
maxiter 250 
end
%output
Print[P_Hirshfeld] = 1
end
% maxcore
4000
*xyz 0 1
Pd   0.75680125   0.61830619  -0.57058109 
O    2.32354336   1.62824368   0.16336674 
C    1.67362090   2.70546049   0.22022493 
O    0.43760418   2.64518162  -0.05718376 
C    2.39262677   3.98523970   0.53412800 
H    1.75308937   4.71814521   1.02404988 
H    2.73862824   4.44668231  -0.39557259 
H    3.28065512   3.81875880   1.15019995 
N   -1.16771829  -0.17966327  -1.14334901 
C   -1.22126146  -0.76814288  -2.51643646 
H   -0.91471486  -0.01203135  -3.24506150 
H   -2.26110533  -1.07148427  -2.72251915 
H   -0.55118654  -1.63206828  -2.60227524 
C   -2.11865814   0.94239032  -1.10579972 
H   -2.08623750   1.41058283  -0.11814355 
H   -3.14152988   0.57837570  -1.30178505 
H   -1.82855748   1.65656222  -1.87849941 
C   -1.51528623  -1.02730243   1.28422448 
C   -0.39735697  -1.54212041   1.93732227 
C   -0.24736521  -1.43322812   3.28354250 
C   -1.26111422  -0.91490641   4.07660648 
C   -2.38344634  -0.38347236   3.48708588 
C   -2.46021515  -0.50424772   2.10939830 
H   -1.18384389  -0.81439880   5.09300355 
H   -3.27082418  -0.08731105   4.02606791 
H    0.32385465  -2.03094649   1.34594258 
H    0.62215211  -1.88606314   3.79012692 
H   -3.01792295   0.44041608   1.70339784 
C   -1.63318089  -1.22872642  -0.19403564 
H   -2.66966451  -1.49079302  -0.44615451 
H   -1.04285606  -2.10989396  -0.39773366 
O    1.67987423  -1.04630775  -1.08599695 
C    2.24549384  -0.90022268  -2.24810272 
O    1.96725829  -0.01879093  -3.03453446 
C    3.33000049  -1.94340640  -2.50023093 
H    3.00778214  -2.96879083  -2.26718558 
H    4.20874979  -1.73888681  -1.87246147 
H    3.62394308  -1.88316059  -3.54296263 
*
