! EnGrad PBEh-3c
%output 
xyzfile=True 
end 
%scf 
maxiter 250 
end
%output
Print[P_Hirshfeld] = 1
end
% maxcore
4000
*xyz 0 1
Pd   0.74192890   0.61513440  -0.57342396 
O    2.32738799   1.63312831   0.16330968 
C    1.67744854   2.70652988   0.22030619 
O    0.44157083   2.64743213  -0.05594607 
C    2.39155571   3.98838228   0.53316207 
H    1.75065171   4.71700712   1.02381502 
H    2.73720978   4.44622795  -0.39660539 
H    3.27757135   3.81823088   1.14828860 
N   -1.16535614  -0.18234575  -1.13956488 
C   -1.22173265  -0.76132230  -2.50983472 
H   -0.91524351  -0.01100037  -3.24096458 
H   -2.25548938  -1.06999606  -2.72502993 
H   -0.55510269  -1.62478713  -2.60178290 
C   -2.11613807   0.93918852  -1.10373024 
H   -2.08880700   1.41089556  -0.11911717 
H   -3.13777261   0.58071767  -1.30061467 
H   -1.83219958   1.65934184  -1.87059433 
C   -1.50150102  -1.02608525   1.29524412 
C   -0.40789293  -1.53912156   1.92484054 
C   -0.23577134  -1.44813316   3.30839463 
C   -1.26975265  -0.90597206   4.05498199 
C   -2.38018741  -0.40973456   3.46930121 
C   -2.48832119  -0.42744276   2.08751300 
H   -1.17613789  -0.81884016   5.12862527 
H   -3.26414891  -0.07617902   4.02974763 
H    0.34426177  -2.03969511   1.34151674 
H    0.61682756  -1.87796537   3.78492488 
H   -3.02405111   0.38529455   1.70364347 
C   -1.62911670  -1.23492554  -0.20105099 
H   -2.66720347  -1.49054097  -0.44525001 
H   -1.03826347  -2.11538462  -0.40624145 
O    1.67817387  -1.04449955  -1.08342486 
C    2.24765972  -0.90999856  -2.23612351 
O    1.97150422  -0.02116715  -3.04006359 
C    3.32684029  -1.94210306  -2.50299094 
H    3.00349720  -2.96390880  -2.26707791 
H    4.20343802  -1.74096208  -1.87388538 
H    3.62521005  -1.88818050  -3.54292794 
*
