! EnGrad PBEh-3c
%output 
xyzfile=True 
end 
%scf 
maxiter 250 
end
%output
Print[P_Hirshfeld] = 1
end
% maxcore
4000
*xyz 0 1
Pd   0.72519671   0.60994901  -0.57706501 
O    2.33115742   1.63568913   0.16318694 
C    1.68076599   2.70815978   0.22140491 
O    0.44470322   2.64743360  -0.05351993 
C    2.39074924   3.98850972   0.53262713 
H    1.74994988   4.71483651   1.02390069 
H    2.73710688   4.44294413  -0.39704547 
H    3.27471066   3.81452993   1.14685809 
N   -1.16369414  -0.18642204  -1.13462238 
C   -1.22163297  -0.75970616  -2.50268676 
H   -0.91503663  -0.01636533  -3.23837154 
H   -2.25045209  -1.07378490  -2.72670543 
H   -0.55908695  -1.62263790  -2.59815659 
C   -2.11362283   0.93484696  -1.10495841 
H   -2.09235831   1.41164886  -0.12440886 
H   -3.13524334   0.58143608  -1.30260651 
H   -1.83601965   1.65955287  -1.86799219 
C   -1.50670594  -1.01512680   1.29598677 
C   -0.40244284  -1.54643804   1.93003428 
C   -0.24124271  -1.45989216   3.31284647 
C   -1.25879343  -0.90447689   4.06340782 
C   -2.39797730  -0.42230022   3.44787968 
C   -2.45619746  -0.38610236   2.08928710 
H   -1.17290236  -0.82439107   5.14764939 
H   -3.25383546  -0.05950091   4.03435728 
H    0.35163085  -2.04736407   1.33865354 
H    0.61459086  -1.87574945   3.78341398 
H   -3.05555119   0.37396897   1.68644039 
C   -1.62542795  -1.24088926  -0.20267610 
H   -2.66912378  -1.48860266  -0.44444161 
H   -1.03848476  -2.11993642  -0.41098540 
O    1.67667744  -1.04341054  -1.08045784 
C    2.24737380  -0.90777812  -2.23566318 
O    1.97565328  -0.03053041  -3.03798719 
C    3.32610175  -1.93686080  -2.50652750 
H    3.00420005  -2.95559867  -2.26944849 
H    4.19994121  -1.73713385  -1.87656813 
H    3.62871952  -1.88683346  -3.54497671 
*
