! EnGrad PBEh-3c
%output 
xyzfile=True 
end 
%scf 
maxiter 250 
end
%output
Print[P_Hirshfeld] = 1
end
% maxcore
4000
*xyz 0 1
Pd   0.69855571   0.58834839  -0.57611589 
O    2.32521377   1.60324354   0.16143427 
C    1.66852319   2.68423499   0.22983016 
O    0.43667646   2.63039758  -0.03214024 
C    2.39926674   3.95966894   0.54117703 
H    1.77258021   4.69735628   1.02996349 
H    2.75730047   4.39643892  -0.39137365 
H    3.27558840   3.76126634   1.15295663 
N   -1.18002530  -0.21370687  -1.14026616 
C   -1.21864247  -0.83225879  -2.48402691 
H   -0.90720540  -0.12445275  -3.24661679 
H   -2.24209486  -1.15597631  -2.71329104 
H   -0.56838143  -1.69602275  -2.54530093 
C   -2.11957862   0.91134625  -1.15439231 
H   -2.11361893   1.42178333  -0.19925275 
H   -3.13835066   0.55911847  -1.35231895 
H   -1.84275047   1.61469968  -1.93811582 
C   -1.50917667  -0.98543339   1.30401937 
C   -0.43674473  -1.60243109   1.94925326 
C   -0.29123310  -1.50449172   3.31741169 
C   -1.27123514  -0.91386833   4.11498727 
C   -2.39776192  -0.38761473   3.48967691 
C   -2.36903617  -0.24964622   2.10788575 
H   -1.17233018  -0.84144607   5.18503045 
H   -3.21279210   0.05773531   4.05338999 
H    0.28704689  -2.11011808   1.32861216 
H    0.58771006  -1.92716021   3.78477715 
H   -2.94546959   0.57434516   1.68529365 
C   -1.66712815  -1.23486624  -0.17003915 
H   -2.71501924  -1.45595299  -0.42985948 
H   -1.09498238  -2.13949026  -0.37565853 
O    1.67741615  -1.04475620  -1.09051744 
C    2.24894152  -0.88062965  -2.25313673 
O    1.94336398  -0.01314458  -3.05172291 
C    3.36252715  -1.86361162  -2.53449449 
H    3.07619713  -2.88769662  -2.31136354 
H    4.21968923  -1.64084616  -1.90122924 
H    3.67032574  -1.79244172  -3.57590218 
*
