! EnGrad PBEh-3c
%output 
xyzfile=True 
end 
%scf 
maxiter 250 
end
%output
Print[P_Hirshfeld] = 1
end
% maxcore
4000
*xyz 0 1
Pd   0.69469689   0.58213833  -0.57178972 
O    2.31863964   1.58399947   0.15699976 
C    1.66191714   2.67099765   0.23243426 
O    0.43061389   2.62433483  -0.02056243 
C    2.40257941   3.94452973   0.54436390 
H    1.78126868   4.68912392   1.03319869 
H    2.76663680   4.37422625  -0.39022033 
H    3.27600345   3.73519470   1.15647118 
N   -1.19007880  -0.22579016  -1.14420813 
C   -1.21814957  -0.86679164  -2.47607645 
H   -0.90213688  -0.17424564  -3.24778313 
H   -2.23782624  -1.19532923  -2.70595814 
H   -0.57074482  -1.73169920  -2.51733816 
C   -2.12461081   0.90129791  -1.17838303 
H   -2.12450097   1.42769367  -0.23385936 
H   -3.13990875   0.54675821  -1.37699997 
H   -1.84531385   1.59303314  -1.96933687 
C   -1.49699723  -0.96575158   1.31002258 
C   -0.45542231  -1.62944038   1.95760543 
C   -0.31419914  -1.52548365   3.32938639 
C   -1.27993664  -0.92769537   4.13076116 
C   -2.38062456  -0.35226770   3.50872961 
C   -2.33548603  -0.18394335   2.11356943 
H   -1.17324315  -0.85473449   5.20247195 
H   -3.18559445   0.11752934   4.06070743 
H    0.25561285  -2.14354029   1.32997993 
H    0.57376349  -1.95243163   3.78673323 
H   -2.91348080   0.65832077   1.67759378 
C   -1.68296371  -1.23269181  -0.15843986 
H   -2.73377562  -1.43969203  -0.41822870 
H   -1.12368149  -2.14919478  -0.36051564 
O    1.67643189  -1.04672579  -1.09681325 
C    2.24646560  -0.86375771  -2.26484838 
O    1.92911939  -0.00924441  -3.05471488 
C    3.38038550  -1.82899190  -2.54852511 
H    3.10866322  -2.85573382  -2.33173968 
H    4.22971722  -1.59329574  -1.91236853 
H    3.68978787  -1.74638882  -3.58999872 
*
