! EnGrad PBEh-3c
%output 
xyzfile=True 
end 
%scf 
maxiter 250 
end
%output
Print[P_Hirshfeld] = 1
end
% maxcore
4000
*xyz 0 1
Pd   0.69080439   0.56694247  -0.55998399 
O    2.29262621   1.54579477   0.14238245 
C    1.65383738   2.63712880   0.23886157 
O    0.41402786   2.60952221   0.00831077 
C    2.40775255   3.90323520   0.54924291 
H    1.80003077   4.66701521   1.03922915 
H    2.78717949   4.32206542  -0.38795717 
H    3.27678468   3.67425411   1.16574299 
N   -1.20892655  -0.25352558  -1.15183506 
C   -1.21894688  -0.94642960  -2.45701911 
H   -0.88704800  -0.28599232  -3.24820506 
H   -2.23136418  -1.28787113  -2.68796030 
H   -0.57069408  -1.81686126  -2.44689521 
C   -2.13875468   0.87754122  -1.23610093 
H   -2.15025437   1.44257867  -0.31098781 
H   -3.14852928   0.51456029  -1.43694767 
H   -1.84828572   1.54324349  -2.04186816 
C   -1.47936575  -0.90120062   1.33739421 
C   -0.51321420  -1.67250218   1.98079430 
C   -0.35288030  -1.58569725   3.36077240 
C   -1.30765939  -0.95868824   4.15511107 
C   -2.31972400  -0.22830138   3.51434501 
C   -2.27078467  -0.04305861   2.12588721 
H   -1.18112534  -0.89623533   5.23608043 
H   -3.10668444   0.26169734   4.07894351 
H    0.18101322  -2.23012911   1.34544644 
H    0.53447784  -2.01581926   3.79686811 
H   -2.83407882   0.80735452   1.67035651 
C   -1.70746812  -1.22241743  -0.13869503 
H   -2.77197549  -1.40067355  -0.37829140 
H   -1.19453318  -2.16918149  -0.32688800 
O    1.67658184  -1.05046843  -1.12126848 
C    2.24222626  -0.84013683  -2.27834440 
O    1.88972324   0.01287489  -3.07171045 
C    3.41884820  -1.74411698  -2.58252816 
H    3.18216102  -2.78523097  -2.37954341 
H    4.25579657  -1.47971582  -1.93596139 
H    3.73322516  -1.63663819  -3.61993011 
*
