! EnGrad PBEh-3c
%output 
xyzfile=True 
end 
%scf 
maxiter 250 
end
%output
Print[P_Hirshfeld] = 1
end
% maxcore
4000
*xyz 0 1
Pd   0.75626101   0.66855921  -0.57274185 
O    2.37143791   1.68134303   0.15000080 
C    1.68870359   2.77332576   0.19151010 
O    0.47546116   2.70820041  -0.08811945 
C    2.37118609   4.07620346   0.51281745 
H    1.67874865   4.74811127   1.01073942 
H    2.68423209   4.54347398  -0.42256871 
H    3.25487713   3.92730157   1.12379023 
N   -1.14054697  -0.12578803  -1.12678493 
C   -1.21341704  -0.57638258  -2.52389463 
H   -0.93214181   0.23368806  -3.18593887 
H   -2.24015251  -0.88339293  -2.76384688 
H   -0.56096935  -1.41425245  -2.70366591 
C   -2.09284146   0.98002240  -0.96521194 
H   -2.06181933   1.39140399   0.03006111 
H   -3.10594557   0.63554326  -1.19021642 
H   -1.83765294   1.77244355  -1.66439276 
C   -1.40988353  -1.03074840   1.22471161 
C   -0.26582010  -1.47636768   1.91835073 
C   -0.17533392  -1.38873922   3.29357381 
C   -1.22805468  -0.89367362   4.02488154 
C   -2.40247641  -0.52225885   3.37626661 
C   -2.60258484  -0.51658688   1.95763829 
H   -1.16161911  -0.83049761   5.10553921 
H   -3.25229023  -0.26082296   3.98156569 
H    0.54657883  -1.93311152   1.37523025 
H    0.71077266  -1.75079005   3.79781755 
H   -3.60522770  -0.19023748   1.54622400 
C   -1.51494695  -1.27303390  -0.24416532 
H   -2.54729203  -1.55897085  -0.46804891 
H   -0.88412534  -2.12359251  -0.54305635 
O    1.64609624  -1.04323516  -1.02178440 
C    2.25255670  -0.97889830  -2.19283856 
O    2.07516234  -0.11272420  -3.00759746 
C    3.23599588  -2.11022574  -2.43757033 
H    2.81774880  -3.07290289  -2.17992787 
H    4.12387596  -1.95681753  -1.83306832 
H    3.54426835  -2.11683409  -3.48652647 
*
