! EnGrad PBEh-3c
%output 
xyzfile=True 
end 
%scf 
maxiter 250 
end
%output
Print[P_Hirshfeld] = 1
end
% maxcore
4000
*xyz 0 1
Pd   0.68759310   0.56459979  -0.56131533 
O    2.29137487   1.54805651   0.14101658 
C    1.65409388   2.63811890   0.23927472 
O    0.41476963   2.60792743   0.00992392 
C    2.40743128   3.90087131   0.54866326 
H    1.79997514   4.66407384   1.03798003 
H    2.78658989   4.32070366  -0.38755465 
H    3.27600953   3.67339453   1.16585809 
N   -1.20592568  -0.25352913  -1.15064550 
C   -1.21880046  -0.94738127  -2.45553193 
H   -0.88534991  -0.28602270  -3.24735251 
H   -2.23259306  -1.28951977  -2.68751543 
H   -0.56914754  -1.81756888  -2.44359844 
C   -2.13925482   0.87657312  -1.23711670 
H   -2.15095625   1.44277443  -0.31132127 
H   -3.15065765   0.51305522  -1.43883306 
H   -1.84720332   1.54317706  -2.04292119 
C   -1.48137175  -0.89840768   1.33815626 
C   -0.51636932  -1.66487644   1.98021143 
C   -0.35195806  -1.59036972   3.36302894 
C   -1.30999528  -0.95301087   4.14691873 
C   -2.30833156  -0.21776054   3.50553083 
C   -2.27581057  -0.04082181   2.12288071 
H   -1.18498849  -0.90140430   5.23402526 
H   -3.09821831   0.26800569   4.07956529 
H    0.17694319  -2.23320525   1.35243901 
H    0.53124120  -2.01999536   3.79997279 
H   -2.83164922   0.78804190   1.67418700 
C   -1.70390567  -1.21880321  -0.13843123 
H   -2.76966282  -1.39923453  -0.37181491 
H   -1.19648342  -2.16787972  -0.32679081 
O    1.67744492  -1.05071463  -1.12349378 
C    2.24118431  -0.83993893  -2.27980400 
O    1.88888323   0.01304555  -3.07124903 
C    3.41830397  -1.74214452  -2.58247940 
H    3.18284987  -2.78482940  -2.38059056 
H    4.25624996  -1.47722986  -1.93587875 
H    3.73285573  -1.63400375  -3.61920241 
*
