! EnGrad PBEh-3c
%output 
xyzfile=True 
end 
%scf 
maxiter 250 
end
%output
Print[P_Hirshfeld] = 1
end
% maxcore
4000
*xyz 0 1
Pd   0.68042130   0.55681529  -0.56208582 
O    2.28513462   1.54382749   0.13363946 
C    1.65086556   2.63383346   0.24087390 
O    0.41170265   2.60141312   0.01996917 
C    2.40819401   3.88825742   0.54862381 
H    1.80280410   4.65162013   1.03561433 
H    2.78869362   4.30718857  -0.38631482 
H    3.27399929   3.65957409   1.16796781 
N   -1.20323659  -0.25687109  -1.15061752 
C   -1.21757722  -0.96536360  -2.44918933 
H   -0.87792346  -0.30717807  -3.24424700 
H   -2.23391720  -1.31068171  -2.68217351 
H   -0.56502144  -1.83477934  -2.42118427 
C   -2.14339846   0.87047377  -1.24998250 
H   -2.15775024   1.44586478  -0.32720486 
H   -3.15687605   0.50299852  -1.45508531 
H   -1.84472135   1.53342492  -2.05897284 
C   -1.48275563  -0.87905348   1.33945960 
C   -0.52835218  -1.65718739   1.98694509 
C   -0.36483846  -1.60841026   3.36878142 
C   -1.31390915  -0.94667923   4.13671378 
C   -2.27216916  -0.16215107   3.49385107 
C   -2.26845129  -0.02056168   2.11660338 
H   -1.19977191  -0.92323896   5.22737269 
H   -3.05567338   0.31218159   4.08150158 
H    0.14923474  -2.25597273   1.37585908 
H    0.51769444  -2.04636741   3.81266682 
H   -2.82179007   0.77345129   1.67635062 
C   -1.70111302  -1.20746977  -0.13050038 
H   -2.76930533  -1.38722584  -0.34617848 
H   -1.21409453  -2.16804184  -0.32009474 
O    1.67822485  -1.05297070  -1.13230127 
C    2.23857792  -0.83518912  -2.28711720 
O    1.87847465   0.01929321  -3.07467110 
C    3.42494840  -1.72264957  -2.58765699 
H    3.19858345  -2.77003660  -2.39247586 
H    4.26160761  -1.44929577  -1.94033971 
H    3.73980512  -1.60615120  -3.62309206 
*
