! EnGrad PBEh-3c
%output 
xyzfile=True 
end 
%scf 
maxiter 250 
end
%output
Print[P_Hirshfeld] = 1
end
% maxcore
4000
*xyz 0 1
Pd   0.67329721   0.55276968  -0.57026303 
O    2.29040515   1.54106606   0.11272223 
C    1.64317435   2.62364488   0.23737487 
O    0.39930613   2.59001990   0.03574995 
C    2.40548495   3.87844263   0.54664058 
H    1.79102609   4.63301844   1.02948260 
H    2.78376503   4.29744930  -0.38833452 
H    3.26888197   3.65122117   1.17055400 
N   -1.20455228  -0.24745942  -1.14987979 
C   -1.21024961  -0.96755040  -2.44079508 
H   -0.86523010  -0.31166288  -3.23247661 
H   -2.22574017  -1.31332758  -2.67055274 
H   -0.55404594  -1.83209409  -2.39559427 
C   -2.14588508   0.87378854  -1.25616553 
H   -2.16549877   1.44550490  -0.33420348 
H   -3.15330032   0.49781047  -1.46657992 
H   -1.83924909   1.53332070  -2.06251183 
C   -1.46242595  -0.89113924   1.33002482 
C   -0.50449699  -1.64176862   1.99526341 
C   -0.36804377  -1.60585626   3.36661983 
C   -1.27527734  -0.90461527   4.12451066 
C   -2.22319212  -0.11923339   3.49290794 
C   -2.25819769  -0.03985280   2.10123427 
H   -1.24733264  -0.95527176   5.19564422 
H   -2.97073144   0.39642307   4.07459834 
H    0.12946005  -2.27996656   1.41617988 
H    0.46975710  -2.10057462   3.83609212 
H   -2.91774082   0.69680633   1.63879942 
C   -1.69107006  -1.19932602  -0.12378507 
H   -2.75724867  -1.36562750  -0.29852986 
H   -1.21259512  -2.15411522  -0.31757085 
O    1.66868267  -1.05958509  -1.14142630 
C    2.23224658  -0.82948876  -2.29663611 
O    1.87194131   0.02486112  -3.08010481 
C    3.42520973  -1.71664018  -2.58750069 
H    3.20532022  -2.76559744  -2.39843961 
H    4.25593756  -1.43356210  -1.93949042 
H    3.73681649  -1.58880294  -3.62028993 
*
