! EnGrad PBEh-3c
%output 
xyzfile=True 
end 
%scf 
maxiter 250 
end
%output
Print[P_Hirshfeld] = 1
end
% maxcore
4000
*xyz 0 1
Pd   0.67329617   0.55322041  -0.57514263 
O    2.29161835   1.53950934   0.09597850 
C    1.64097866   2.61697783   0.23454456 
O    0.39392426   2.57896385   0.04591005 
C    2.39979861   3.87195414   0.54487975 
H    1.77960454   4.62382135   1.02658470 
H    2.77928839   4.29366215  -0.39025053 
H    3.26461645   3.64846455   1.17172854 
N   -1.20505154  -0.24181433  -1.14709649 
C   -1.20412527  -0.96284325  -2.43469019 
H   -0.85695188  -0.30911391  -3.22674286 
H   -2.21841914  -1.30920192  -2.66334235 
H   -0.54620974  -1.82528221  -2.38262401 
C   -2.14558335   0.87851223  -1.25695254 
H   -2.16974003   1.44682397  -0.33391038 
H   -3.14932295   0.49841107  -1.47130034 
H   -1.83592395   1.53787494  -2.06280544 
C   -1.45331347  -0.89041841   1.33364410 
C   -0.48701100  -1.63531975   1.99800051 
C   -0.35582644  -1.59872311   3.36635953 
C   -1.25335828  -0.87600053   4.11754594 
C   -2.20289665  -0.09655388   3.47775475 
C   -2.26526819  -0.05126465   2.08921322 
H   -1.27350482  -0.96969581   5.18997571 
H   -2.92047138   0.45185784   4.07075627 
H    0.13699170  -2.30097528   1.42920512 
H    0.43824067  -2.14085609   3.85076297 
H   -2.98303160   0.62982420   1.61798324 
C   -1.68338447  -1.19598531  -0.12060891 
H   -2.75605426  -1.35315893  -0.27374409 
H   -1.20289424  -2.14865227  -0.32077318 
O    1.65893955  -1.06233960  -1.14981408 
C    2.22879591  -0.83100924  -2.29841146 
O    1.86959445   0.02894948  -3.08410345 
C    3.42094718  -1.71535550  -2.58658377 
H    3.20668489  -2.76715748  -2.39881391 
H    4.25045676  -1.42964845  -1.93654620 
H    3.73402170  -1.58441864  -3.61901779 
*
