! EnGrad PBEh-3c
%output 
xyzfile=True 
end 
%scf 
maxiter 250 
end
%output
Print[P_Hirshfeld] = 1
end
% maxcore
4000
*xyz 0 1
Pd   0.66617443   0.54772871  -0.57964712 
O    2.29220175   1.52872771   0.06297159 
C    1.64066586   2.59953173   0.23311653 
O    0.39196805   2.54655745   0.06954626 
C    2.38768064   3.85702336   0.54555621 
H    1.76451004   4.60671561   1.02503214 
H    2.77320668   4.27422100  -0.38681626 
H    3.24912488   3.63203642   1.17141824 
N   -1.20112223  -0.24113028  -1.13507865 
C   -1.19163414  -0.97026803  -2.42023687 
H   -0.84059856  -0.32961412  -3.22562419 
H   -2.20430892  -1.32229271  -2.65234047 
H   -0.53437686  -1.83214379  -2.35379146 
C   -2.14224266   0.88186512  -1.26742238 
H   -2.18119532   1.46119480  -0.34787270 
H   -3.14731536   0.50187693  -1.49163724 
H   -1.83298094   1.53820906  -2.08145747 
C   -1.43785799  -0.87469512   1.34100921 
C   -0.47168064  -1.64654004   1.99468350 
C   -0.34667025  -1.60001282   3.37991798 
C   -1.25706190  -0.84963815   4.12146542 
C   -2.18296733  -0.04039647   3.46769161 
C   -2.27318224  -0.03360849   2.08525882 
H   -1.28538421  -0.96406499   5.20661173 
H   -2.85193329   0.56454490   4.06504470 
H    0.15507419  -2.34229339   1.42522550 
H    0.39435805  -2.22865667   3.87384351 
H   -3.02495772   0.56519641   1.60225835 
C   -1.69118489  -1.19561461  -0.10464474 
H   -2.77325218  -1.33328413  -0.25393866 
H   -1.20187184  -2.14969573  -0.32214511 
O    1.63662635  -1.06748193  -1.16909418 
C    2.21803052  -0.82860132  -2.31022430 
O    1.86490398   0.03621475  -3.09029835 
C    3.42368839  -1.69690152  -2.59554133 
H    3.22667044  -2.75138938  -2.40675843 
H    4.24399452  -1.40320516  -1.93707440 
H    3.74340822  -1.56152971  -3.62641880 
*
