! EnGrad PBEh-3c
%output 
xyzfile=True 
end 
%scf 
maxiter 250 
end
%output
Print[P_Hirshfeld] = 1
end
% maxcore
4000
*xyz 0 1
Pd   0.74229964   0.66385683  -0.57829521 
O    2.37088137   1.69942610   0.14973123 
C    1.70399974   2.77505861   0.19244881 
O    0.47831065   2.70967233  -0.08979954 
C    2.36648660   4.07822925   0.50934766 
H    1.67376796   4.74976773   1.00981303 
H    2.68025697   4.54920185  -0.42392573 
H    3.25209051   3.93345874   1.12154266 
N   -1.13239680  -0.12520900  -1.11507560 
C   -1.21577277  -0.56067924  -2.51988296 
H   -0.93239538   0.25047433  -3.18394004 
H   -2.23777070  -0.87183077  -2.76859733 
H   -0.56109231  -1.39988060  -2.70990854 
C   -2.08866286   0.97941536  -0.95906603 
H   -2.06096353   1.39060661   0.04121749 
H   -3.10501836   0.64035503  -1.18281876 
H   -1.84025243   1.78265216  -1.64943087 
C   -1.40315574  -1.03250521   1.22401660 
C   -0.26418933  -1.46795639   1.91288951 
C   -0.17492772  -1.39139376   3.29138854 
C   -1.22860685  -0.88396670   4.02354929 
C   -2.40648529  -0.54304512   3.37284638 
C   -2.52044792  -0.53425089   1.97123125 
H   -1.16285205  -0.83325252   5.10354807 
H   -3.25368812  -0.26450124   3.98257492 
H    0.55649999  -1.92327041   1.37702960 
H    0.71584393  -1.73925741   3.79739128 
H   -3.70135827  -0.21946309   1.50751309 
C   -1.50572953  -1.27811924  -0.25218923 
H   -2.54086430  -1.56382715  -0.47226154 
H   -0.87477718  -2.12073906  -0.55130429 
O    1.64657717  -1.04059188  -1.02188289 
C    2.25148166  -0.98813536  -2.18051096 
O    2.08364655  -0.11988824  -3.00686292 
C    3.22681800  -2.11576612  -2.43779405 
H    2.80414346  -3.08023275  -2.17339321 
H    4.11826255  -1.97124896  -1.82959501 
H    3.53957251  -2.13366550  -3.48202836 
*
