! EnGrad PBEh-3c
%output 
xyzfile=True 
end 
%scf 
maxiter 250 
end
%output
Print[P_Hirshfeld] = 1
end
% maxcore
4000
*xyz 0 1
Pd   0.66365219   0.54432547  -0.57868169 
O    2.29646321   1.52703427   0.05719378 
C    1.64215146   2.59432426   0.23313063 
O    0.39243719   2.53911941   0.07471325 
C    2.38399932   3.85479394   0.54661609 
H    1.76187847   4.60501704   1.02604385 
H    2.77144276   4.26991679  -0.38475440 
H    3.24436126   3.62858041   1.17140874 
N   -1.20209569  -0.24238178  -1.13282923 
C   -1.18946345  -0.97293596  -2.41845930 
H   -0.83815761  -0.33592054  -3.22639388 
H   -2.20103110  -1.32634003  -2.65199788 
H   -0.53282262  -1.83531403  -2.35113887 
C   -2.14134272   0.88273267  -1.26883563 
H   -2.18264815   1.46700497  -0.35237284 
H   -3.14653782   0.50574916  -1.49549230 
H   -1.83270581   1.53659337  -2.08462946 
C   -1.43556446  -0.87927326   1.34292104 
C   -0.47166239  -1.65028437   1.99499417 
C   -0.35282680  -1.61003260   3.38406825 
C   -1.26699163  -0.85586820   4.12619418 
C   -2.18241166  -0.03637704   3.47719193 
C   -2.26218799  -0.03366778   2.09322298 
H   -1.27189830  -0.94369153   5.20989310 
H   -2.85588543   0.57965491   4.06307648 
H    0.15761759  -2.33621411   1.41882348 
H    0.38636468  -2.23673245   3.87240032 
H   -3.01505752   0.57173009   1.60396333 
C   -1.69670277  -1.19759451  -0.10415047 
H   -2.77746970  -1.33445833  -0.26285361 
H   -1.20810837  -2.15010461  -0.32096303 
O    1.63159216  -1.07054602  -1.17341999 
C    2.21529643  -0.82716528  -2.31469691 
O    1.86622854   0.03669367  -3.09148677 
C    3.42541332  -1.69300584  -2.59873334 
H    3.23172883  -2.74641346  -2.40815737 
H    4.24236016  -1.39753604  -1.93809645 
H    3.74777219  -1.55875828  -3.62887291 
*
