! EnGrad PBEh-3c
%output 
xyzfile=True 
end 
%scf 
maxiter 250 
end
%output
Print[P_Hirshfeld] = 1
end
% maxcore
4000
*xyz 0 1
Pd   0.76053513   0.66824841  -0.57106942 
O    2.36552907   1.68140194   0.15025829 
C    1.69320256   2.76651333   0.19290614 
O    0.47041911   2.70691855  -0.08797827 
C    2.37155172   4.07284028   0.51328875 
H    1.68138071   4.74772275   1.01149138 
H    2.68641746   4.54044739  -0.42179974 
H    3.25661172   3.92356908   1.12525278 
N   -1.14241977  -0.12702461  -1.12892204 
C   -1.21480675  -0.58341606  -2.52484923 
H   -0.93164603   0.22505387  -3.18785622 
H   -2.24087069  -0.88981248  -2.76189082 
H   -0.55992211  -1.42300777  -2.70034517 
C   -2.09422633   0.97888976  -0.97134348 
H   -2.06232737   1.39233420   0.02570310 
H   -3.10716615   0.63324099  -1.19421441 
H   -1.83685548   1.76759025  -1.67224826 
C   -1.42671710  -1.02475724   1.23419383 
C   -0.27421790  -1.47733597   1.91750867 
C   -0.17451814  -1.38934943   3.29547950 
C   -1.23025649  -0.89606161   4.02447729 
C   -2.40619766  -0.51226352   3.36903735 
C   -2.61664989  -0.51276821   1.95578310 
H   -1.16138272  -0.82945933   5.10602391 
H   -3.25221362  -0.25717907   3.98356839 
H    0.54169413  -1.93851165   1.37378756 
H    0.70820692  -1.75663625   3.79823943 
H   -3.55524297  -0.17710200   1.56604836 
C   -1.51706650  -1.27206251  -0.24390787 
H   -2.55135269  -1.55654362  -0.46621188 
H   -0.89012843  -2.12354886  -0.53835322 
O    1.64788151  -1.04342927  -1.02577779 
C    2.25210959  -0.97914985  -2.19062875 
O    2.07033326  -0.10562048  -3.01176772 
C    3.23994761  -2.10405849  -2.44068079 
H    2.82433089  -3.07019198  -2.18285903 
H    4.12767845  -1.94898570  -1.83412156 
H    3.54681706  -2.10827485  -3.48794054 
*
