! EnGrad PBEh-3c
%output 
xyzfile=True 
end 
%scf 
maxiter 250 
end
%output
Print[P_Hirshfeld] = 1
end
% maxcore
4000
*xyz 0 1
Pd   0.78480153   0.66940073  -0.56223224 
O    2.35153059   1.65785902   0.15066516 
C    1.68293036   2.75033580   0.19671148 
O    0.45625662   2.69677933  -0.08358647 
C    2.37774421   4.05507431   0.51830287 
H    1.69610052   4.74407300   1.01514207 
H    2.69837939   4.52274126  -0.41723927 
H    3.26510107   3.90305938   1.13260319 
N   -1.15449060  -0.13339985  -1.14461988 
C   -1.21725845  -0.62535904  -2.53133596 
H   -0.92866016   0.17570312  -3.19840735 
H   -2.24642952  -0.92627728  -2.75019277 
H   -0.55512020  -1.47057223  -2.68081104 
C   -2.10341348   0.97470135  -1.00023141 
H   -2.06548730   1.39649569  -0.00172645 
H   -3.11392669   0.61995799  -1.21675798 
H   -1.83173879   1.74047128  -1.71762604 
C   -1.49587218  -1.00572790   1.25868540 
C   -0.31531383  -1.48538431   1.92020802 
C   -0.17509272  -1.39029227   3.29989794 
C   -1.24828120  -0.90977438   4.01863638 
C   -2.42133784  -0.45642134   3.34575556 
C   -2.62660568  -0.51497877   1.99678191 
H   -1.16183360  -0.82323817   5.10738891 
H   -3.25162645  -0.23525021   3.99138702 
H    0.50789847  -1.96538238   1.36518293 
H    0.69552581  -1.78997752   3.80061834 
H   -3.35886387  -0.07207956   1.63802570 
C   -1.53866945  -1.26009162  -0.23249094 
H   -2.57289400  -1.54236347  -0.45775959 
H   -0.92107729  -2.12517926  -0.51090526 
O    1.65394551  -1.04739948  -1.03937746 
C    2.24951210  -0.95799779  -2.20844583 
O    2.04573959  -0.08356835  -3.01598300 
C    3.26265836  -2.07436129  -2.45173973 
H    2.86321382  -3.05298545  -2.20015222 
H    4.14790451  -1.90488365  -1.84091191 
H    3.56096036  -2.05878785  -3.49806272 
*
