! EnGrad PBEh-3c
%output 
xyzfile=True 
end 
%scf 
maxiter 250 
end
%output
Print[P_Hirshfeld] = 1
end
% maxcore
4000
*xyz 0 1
Pd   0.76221489   0.66832818  -0.57045770 
O    2.36456008   1.67977227   0.15028645 
C    1.69249151   2.76539350   0.19316955 
O    0.46943876   2.70621669  -0.08767426 
C    2.37198038   4.07161050   0.51363584 
H    1.68239964   4.74747011   1.01174409 
H    2.68724548   4.53922175  -0.42148406 
H    3.25719937   3.92214937   1.12576159 
N   -1.14325533  -0.12746591  -1.13000867 
C   -1.21497646  -0.58631941  -2.52529825 
H   -0.93143934   0.22163774  -3.18858658 
H   -2.24125548  -0.89233663  -2.76108106 
H   -0.55958971  -1.42630025  -2.69899299 
C   -2.09486227   0.97859983  -0.97334314 
H   -2.06254611   1.39262227   0.02380438 
H   -3.10763412   0.63232153  -1.19577491 
H   -1.83650129   1.76571304  -1.67538937 
C   -1.43150412  -1.02344001   1.23588917 
C   -0.27706262  -1.47789309   1.91769553 
C   -0.17455792  -1.38941469   3.29578535 
C   -1.23150418  -0.89701083   4.02407298 
C   -2.40724569  -0.50839805   3.36742575 
C   -2.61733905  -0.51292123   1.95862109 
H   -1.16141393  -0.82902870   5.10611839 
H   -3.25217298  -0.25566112   3.98410961 
H    0.53935475  -1.94037168   1.37319193 
H    0.70732912  -1.75894418   3.79840410 
H   -3.54164933  -0.16983220   1.57103073 
C   -1.51856189  -1.27123387  -0.24311757 
H   -2.55284381  -1.55556205  -0.46562680 
H   -0.89227075  -2.12366172  -0.53645323 
O    1.64830127  -1.04370409  -1.02671918 
C    2.25192979  -0.97768568  -2.19186208 
O    2.06863085  -0.10409400  -3.01205950 
C    3.24151968  -2.10200281  -2.44144630 
H    2.82702242  -3.06900092  -2.18405609 
H    4.12907852  -1.94593289  -1.83459160 
H    3.54779608  -2.10484929  -3.48864121 
*
