! EnGrad PBEh-3c
%output 
xyzfile=True 
end 
%scf 
maxiter 250 
end
%output
Print[P_Hirshfeld] = 1
end
% maxcore
4000
*xyz 0 1
Pd   0.76571628   0.66849444  -0.56918258 
O    2.36254024   1.67637526   0.15034516 
C    1.69100933   2.76305924   0.19371862 
O    0.46739526   2.70475371  -0.08704057 
C    2.37287389   4.06904705   0.51435932 
H    1.68452356   4.74694349   1.01227084 
H    2.68897147   4.53666693  -0.42082603 
H    3.25842429   3.91919003   1.12682218 
N   -1.14499703  -0.12838580  -1.13227371 
C   -1.21533022  -0.59237136  -2.52623422 
H   -0.93100851   0.21451692  -3.19010901 
H   -2.24205756  -0.89759813  -2.75939315 
H   -0.55889684  -1.43316332  -2.69617441 
C   -2.09618789   0.97799548  -0.97751138 
H   -2.06300205   1.39322273   0.01984658 
H   -3.10860960   0.63040492  -1.19902772 
H   -1.83576301   1.76180004  -1.68193693 
C   -1.44148250  -1.02069426   1.23942306 
C   -0.28299234  -1.47905438   1.91808502 
C   -0.17464082  -1.38955073   3.29642289 
C   -1.23410497  -0.89898944   4.02323019 
C   -2.40943026  -0.50034058   3.36406643 
C   -2.61877557  -0.51324019   1.96453681 
H   -1.16147899  -0.82813105   5.10631535 
H   -3.25208826  -0.25249701   3.98523776 
H    0.53447837  -1.94424886   1.37195037 
H    0.70549936  -1.76375499   3.79874736 
H   -3.51331380  -0.15467852   1.58141634 
C   -1.52167898  -1.26950659  -0.24147023 
H   -2.55595201  -1.55351600  -0.46440722 
H   -0.89673636  -2.12389697  -0.53249276 
O    1.64917625  -1.04427696  -1.02868147 
C    2.25155500  -0.97463365  -2.19443290 
O    2.06508223  -0.10091210  -3.01266773 
C    3.24479661  -2.09771780  -2.44304200 
H    2.83263284  -3.06651819  -2.18655132 
H    4.13199694  -1.93956941  -1.83557138 
H    3.54983681  -2.09770882  -3.49010174 
*
