! EnGrad PBEh-3c
%output 
xyzfile=True 
end 
%scf 
maxiter 250 
end
%output
Print[P_Hirshfeld] = 1
end
% maxcore
4000
*xyz 0 1
Pd   0.79984735   0.66291130  -0.55720330 
O    2.33541764   1.63950479   0.15161509 
C    1.67528307   2.73172710   0.20265026 
O    0.44409341   2.68111964  -0.07668883 
C    2.38315017   4.03071123   0.52339265 
H    1.71414047   4.73863641   1.01910245 
H    2.71230992   4.50038421  -0.41108984 
H    3.27369604   3.87734366   1.14057062 
N   -1.16274665  -0.14399438  -1.15411374 
C   -1.22053195  -0.67422622  -2.53473408 
H   -0.92407596   0.11654202  -3.21330898 
H   -2.25315136  -0.97141694  -2.73802554 
H   -0.54944130  -1.52721081  -2.65646714 
C   -2.11229585   0.96723054  -1.03552004 
H   -2.07014496   1.40143600  -0.03497814 
H   -3.12379516   0.60481889  -1.24401014 
H   -1.82728656   1.71058902  -1.77233179 
C   -1.55694682  -0.99406066   1.28730712 
C   -0.37159287  -1.49149514   1.91625172 
C   -0.18637844  -1.39440370   3.30100587 
C   -1.27827521  -0.91643201   4.00972762 
C   -2.42686701  -0.40477780   3.35095337 
C   -2.52912052  -0.54487413   2.07143116 
H   -1.16666523  -0.81703476   5.10314447 
H   -3.25394141  -0.20053837   4.00096504 
H    0.45717903  -1.99162717   1.35570634 
H    0.68124293  -1.82832756   3.80311289 
H   -3.21418568   0.08251959   1.68027759 
C   -1.57045575  -1.24401875  -0.21938173 
H   -2.59984326  -1.52552015  -0.45155483 
H   -0.95831365  -2.12388785  -0.47520406 
O    1.66280236  -1.04976508  -1.05834241 
C    2.24716636  -0.93987680  -2.22142347 
O    2.01621270  -0.05418600  -3.02456743 
C    3.28670027  -2.03414323  -2.46679215 
H    2.90984056  -3.03174251  -2.22060470 
H    4.17180695  -1.85160527  -1.84863413 
H    3.57880299  -2.00013197  -3.51069413 
*
