! EnGrad PBEh-3c
%output 
xyzfile=True 
end 
%scf 
maxiter 250 
end
%output
Print[P_Hirshfeld] = 1
end
% maxcore
4000
*xyz 0 1
Pd   0.77668946   0.66669945  -0.56533123 
O    2.35382029   1.66452136   0.15075344 
C    1.68595332   2.75298592   0.19659016 
O    0.45990368   2.69715532  -0.08371247 
C    2.37617773   4.05672203   0.51726355 
H    1.69404543   4.74427275   1.01446721 
H    2.69647481   4.52500199  -0.41769583 
H    3.26333418   3.90573637   1.13124232 
N   -1.15070355  -0.13340398  -1.13929531 
C   -1.21700258  -0.61868781  -2.52896694 
H   -0.92877969   0.18301786  -3.19756783 
H   -2.24562424  -0.92133098  -2.75252344 
H   -0.55585687  -1.46339971  -2.68340847 
C   -2.10136662   0.97453454  -0.99616124 
H   -2.06529851   1.39586331   0.00222036 
H   -3.11349178   0.62217898  -1.21348963 
H   -1.83303782   1.74533563  -1.71099899 
C   -1.47860443  -1.01213153   1.25481785 
C   -0.31147753  -1.48305410   1.91749561 
C   -0.17841448  -1.39111097   3.29789632 
C   -1.24830576  -0.90459725   4.01888910 
C   -2.41503620  -0.46961702   3.35985056 
C   -2.58995135  -0.52341054   1.99890348 
H   -1.16314637  -0.82456357   5.10529591 
H   -3.25268405  -0.23579224   3.99029410 
H    0.50962653  -1.95948105   1.36672789 
H    0.69770089  -1.78451516   3.80015088 
H   -3.41714372  -0.07841901   1.61320036 
C   -1.53736077  -1.26131222  -0.23436875 
H   -2.57006310  -1.54451529  -0.46027516 
H   -0.91653354  -2.12389404  -0.51407437 
O    1.65355706  -1.04604139  -1.03821750 
C    2.25014405  -0.96345928  -2.20311040 
O    2.04937061  -0.08588960  -3.01649350 
C    3.25826869  -2.07727850  -2.45067770 
H    2.85745522  -3.05533777  -2.19749953 
H    4.14479591  -1.91128882  -1.83977107 
H    3.55914948  -2.06633773  -3.49672222 
*
