! EnGrad PBEh-3c
%output 
xyzfile=True 
end 
%scf 
maxiter 250 
end
%output
Print[P_Hirshfeld] = 1
end
% maxcore
4000
*xyz -1 1
C   -2.51655547  -0.23340812   0.81415807 
C   -1.96784455   0.91128148   1.41782807 
C   -3.83137536  -0.55508591   1.15644574 
C   -4.72189091   0.45778394   1.49082297 
C   -4.18986910   1.60295604   2.05820711 
C   -2.81280416   1.72482318   2.17051524 
H   -2.58148138  -1.22971564  -1.03410820 
H   -4.23692267  -1.53732391   0.94817034 
H   -2.43932861   2.62972813   2.63814996 
H   -5.79207897   0.27729136   1.50847902 
H   -4.85781073   2.33033851   2.50392653 
C   -0.60473646   1.43529359   1.07590598 
C    0.53368999   0.55111994   1.56116948 
H   -0.41687282   2.44723553   1.45926781 
H   -0.60962692   1.63996111   0.00136210 
C    1.74167679   0.62916030   0.66502705 
H    0.22247881  -0.49256001   1.65289358 
H    0.80495751   0.83178445   2.58621623 
C    1.80119058  -0.08963843  -0.53882608 
C    2.91062536   0.09559311  -1.36044420 
C    3.87288343   1.05911152  -1.08022882 
C    2.85571317   1.36860367   1.05966440 
C    3.82543593   1.72849716   0.13309559 
H    3.02808832  -0.48998885  -2.26297871 
H    4.65173806   1.28436026  -1.79947665 
H    2.86269344   1.81553858   2.04886390 
H    4.49352063   2.55927851   0.32578205 
Pd   0.43341440  -1.41992530  -0.98517351 
Br  -1.33961344  -3.75282634  -1.21303589 
P    1.30919419  -2.98773304   0.25378185 
H    0.58044949  -3.44669962   1.35836236 
C    0.57914332  -1.10202372  -3.93178067 
O    1.61586140  -1.67528444  -4.18540660 
O   -0.37035620  -1.56362673  -3.22352753 
O    0.10747638  -0.05582364  -4.64878766 
H    2.52920925  -2.75279331   0.91637282 
H    1.69884478  -4.20695129  -0.32469410 
H    0.83088207   0.21167031  -5.21598100 
*
