! EnGrad PBEh-3c
%output 
xyzfile=True 
end 
%scf 
maxiter 250 
end
%output
Print[P_Hirshfeld] = 1
end
% maxcore
4000
*xyz -1 1
C   -2.40034797  -0.14325280   0.50780651 
C   -1.93331671   1.01138201   1.28750314 
C   -3.74020296  -0.47350186   0.65940872 
C   -4.66369084   0.36113255   1.30954176 
C   -4.27192051   1.58995469   1.82254673 
C   -2.90100073   1.87945209   1.83323596 
H   -2.23916659  -1.10772224  -0.93641894 
H   -3.99219838  -1.51431588   0.44672846 
H   -2.58590963   2.85925085   2.22988912 
H   -5.69461443   0.20226700   1.02346113 
H   -5.00478519   2.33868140   2.13950129 
C   -0.45285506   1.47969217   1.58916386 
C    0.69495631   0.42318316   1.86363544 
H   -0.45716905   2.20813640   2.48820056 
H   -0.19259726   2.01177148   0.64376965 
C    1.79661659   0.53398036   0.81382865 
H    0.25770610  -0.58213120   1.84323573 
H    1.13428248   0.61600137   2.86582877 
C    1.65904063  -0.10531891  -0.45829469 
C    2.68119699   0.18224308  -1.37949380 
C    3.68981755   1.12299358  -1.13065052 
C    2.82660858   1.47380395   1.06828368 
C    3.77540771   1.77442793   0.10161087 
H    2.71173637  -0.38921987  -2.30821144 
H    4.43836010   1.33016100  -1.88729014 
H    3.01179203   1.81226447   2.09706037 
H    4.55706480   2.50378674   0.31296085 
Pd   0.09319326  -1.57260890  -0.92983466 
Br  -1.49262933  -3.58748837  -0.69606486 
P    1.41753922  -2.97248254   0.11043457 
H    0.96011885  -3.59398165   1.30357300 
C    0.36572946  -1.32326681  -3.89921317 
O    1.50793885  -1.69445521  -4.24750893 
O   -0.43790354  -1.91084634  -3.05557685 
O   -0.12137780  -0.16362293  -4.38819316 
H    2.78629790  -2.76133165   0.49161315 
H    1.59852669  -4.12582511  -0.69412940 
H    0.61660167   0.29867308  -4.82932337 
*
