! EnGrad PBEh-3c
%output 
xyzfile=True 
end 
%scf 
maxiter 250 
end
%output
Print[P_Hirshfeld] = 1
end
% maxcore
4000
*xyz -1 1
C   -2.37972189  -0.13042166   0.47297414 
C   -1.91797460   1.01751753   1.27158223 
C   -3.71656837  -0.47661973   0.66817579 
C   -4.66632942   0.36246347   1.25341950 
C   -4.27377600   1.59416763   1.77555768 
C   -2.90349598   1.87851759   1.79834599 
H   -2.16823834  -1.05771188  -0.85281156 
H   -3.98188129  -1.50142824   0.36646537 
H   -2.59641136   2.85850927   2.20975105 
H   -5.69441537   0.18237928   1.00805731 
H   -5.01027071   2.33156025   2.10234061 
C   -0.44866800   1.49168434   1.61792579 
C    0.69354478   0.42083383   1.88237888 
H   -0.46657030   2.16254529   2.52949221 
H   -0.14088410   2.05328304   0.72814119 
C    1.77450801   0.53810623   0.81589218 
H    0.26306121  -0.59087983   1.86506936 
H    1.15165089   0.59094716   2.87850684 
C    1.64662490  -0.11892875  -0.44679660 
C    2.65620832   0.18357423  -1.37505110 
C    3.66813025   1.12219396  -1.13790558 
C    2.82965764   1.44678580   1.07537530 
C    3.75851186   1.77964214   0.09496341 
H    2.67701788  -0.37139714  -2.31753379 
H    4.41402429   1.33191546  -1.89581794 
H    3.00779391   1.81921948   2.08798736 
H    4.56301011   2.48729816   0.30892569 
Pd   0.10458227  -1.56755454  -0.88464377 
Br  -1.52238388  -3.56827832  -0.65062165 
P    1.43347829  -2.98097042   0.10522909 
H    1.00067687  -3.60093213   1.28842819 
C    0.35281179  -1.34371493  -3.84212657 
O    1.49408443  -1.70433413  -4.26197287 
O   -0.42872351  -1.90888270  -3.09235310 
O   -0.15224292  -0.16358577  -4.36760351 
H    2.79521497  -2.75797178   0.44740683 
H    1.58926106  -4.11026827  -0.72094824 
H    0.59081075   0.29242801  -4.79247591 
*
