! EnGrad PBEh-3c
%output 
xyzfile=True 
end 
%scf 
maxiter 250 
end
%output
Print[P_Hirshfeld] = 1
end
% maxcore
4000
*xyz -1 1
C   -2.37180950  -0.13887618   0.47132825 
C   -1.89315735   1.00431847   1.26378474 
C   -3.69762029  -0.50737883   0.73700276 
C   -4.66121821   0.39152261   1.21174420 
C   -4.25716623   1.59477288   1.74154883 
C   -2.89612286   1.85746875   1.80845630 
H   -2.10807881  -0.97908696  -0.69904444 
H   -4.00582428  -1.47034411   0.33687290 
H   -2.58587786   2.80581066   2.25401136 
H   -5.71809705   0.15896796   1.07303512 
H   -4.98887737   2.31940712   2.10555321 
C   -0.47046150   1.47680722   1.56863898 
C    0.66126462   0.43688964   1.84992157 
H   -0.48020704   2.13953842   2.40570366 
H   -0.13417012   2.05793602   0.73952116 
C    1.73711202   0.55302911   0.80051002 
H    0.26270488  -0.58030681   1.86590329 
H    1.11270549   0.59360124   2.84148681 
C    1.65293326  -0.12634961  -0.43706479 
C    2.65953057   0.16319319  -1.37318796 
C    3.66211397   1.11493350  -1.13113262 
C    2.83319075   1.39487889   1.07228301 
C    3.74284096   1.76245429   0.08911745 
H    2.67743527  -0.35998356  -2.32049398 
H    4.41045835   1.32466435  -1.89491031 
H    2.96831854   1.83011887   2.06523121 
H    4.55464103   2.46604063   0.30412214 
Pd   0.17814635  -1.52749675  -0.83395339 
Br  -1.54337235  -3.56186198  -0.67319862 
P    1.44074664  -2.99473197   0.11882944 
H    0.99428183  -3.58783384   1.27952326 
C    0.33682398  -1.28846923  -3.84171863 
O    1.54337240  -1.71750767  -4.26585807 
O   -0.43960338  -1.88361926  -3.09752590 
O   -0.13236372  -0.14629202  -4.37229591 
H    2.76510364  -2.74978098   0.45592499 
H    1.59406820  -4.10399874  -0.69750091 
H    0.58742977   0.27061070  -4.80873467 
*
