! EnGrad PBEh-3c
%output 
xyzfile=True 
end 
%scf 
maxiter 250 
end
%output
Print[P_Hirshfeld] = 1
end
% maxcore
4000
*xyz -1 1
C   -2.37599288  -0.15735092   0.49364478 
C   -1.89885184   0.99022791   1.26886155 
C   -3.69974090  -0.51515837   0.77426626 
C   -4.66238060   0.39441557   1.21505941 
C   -4.24506013   1.60179859   1.75241507 
C   -2.88043735   1.83705934   1.83375640 
H   -2.10345966  -0.95987096  -0.63843684 
H   -4.02786140  -1.46015910   0.36537767 
H   -2.57113841   2.77103542   2.30287625 
H   -5.72453806   0.15652433   1.13086031 
H   -4.96893405   2.31526016   2.12805835 
C   -0.48474163   1.45247282   1.50971826 
C    0.64050368   0.44683105   1.81688501 
H   -0.48544853   2.16148950   2.30664790 
H   -0.15848611   2.04024243   0.68478553 
C    1.72935504   0.55893734   0.78945199 
H    0.25622858  -0.56836427   1.85185615 
H    1.07316217   0.61374322   2.80815975 
C    1.66483506  -0.12357708  -0.44202019 
C    2.67682472   0.15201853  -1.36865291 
C    3.67052090   1.10468315  -1.13082161 
C    2.82910278   1.38044158   1.06944474 
C    3.74573007   1.74749643   0.09322169 
H    2.69777724  -0.36592402  -2.32017108 
H    4.42013837   1.31788721  -1.88740879 
H    2.94049300   1.83335384   2.05276668 
H    4.54342566   2.45852220   0.30341714 
Pd   0.21627454  -1.50333360  -0.82923875 
Br  -1.54166824  -3.56328584  -0.71928430 
P    1.43275655  -2.99475407   0.12985645 
H    0.96308019  -3.57602942   1.28663537 
C    0.34363610  -1.28949344  -3.84639669 
O    1.55461772  -1.70260980  -4.25204422 
O   -0.42755973  -1.84256143  -3.10575519 
O   -0.11321272  -0.12669895  -4.38874004 
H    2.74433943  -2.74526678   0.49090660 
H    1.60350971  -4.11226531  -0.66710139 
H    0.61309440   0.26613089  -4.85116640 
*
