! EnGrad PBEh-3c
%output 
xyzfile=True 
end 
%scf 
maxiter 250 
end
%output
Print[P_Hirshfeld] = 1
end
% maxcore
4000
*xyz -1 1
C   -2.37508811  -0.16302277   0.49958219 
C   -1.90596313   0.98725030   1.26912682 
C   -3.70177109  -0.51062992   0.75911063 
C   -4.65930576   0.39055335   1.22538730 
C   -4.24460831   1.59988578   1.75680517 
C   -2.87852743   1.83873899   1.83670381 
H   -2.10165212  -0.97374166  -0.64521735 
H   -4.02451521  -1.46149284   0.37189540 
H   -2.57025528   2.77190218   2.30741254 
H   -5.71924483   0.15772178   1.13030507 
H   -4.96912812   2.31841511   2.12748195 
C   -0.48175528   1.44627234   1.50884849 
C    0.64209095   0.44331786   1.81675387 
H   -0.48567146   2.17370616   2.31836960 
H   -0.15917087   2.04307124   0.66798966 
C    1.73650274   0.55386835   0.79124845 
H    0.25274768  -0.56809876   1.84983032 
H    1.07173815   0.61835326   2.80963161 
C    1.66434914  -0.12079840  -0.44355290 
C    2.67716149   0.15196713  -1.37009723 
C    3.67080415   1.10389129  -1.13107944 
C    2.82535250   1.39040742   1.06806172 
C    3.74835193   1.74282554   0.09449714 
H    2.69747380  -0.36862518  -2.31998941 
H    4.41917655   1.31721245  -1.88728174 
H    2.93892883   1.83312613   2.05410092 
H    4.54206910   2.45767428   0.30426011 
Pd   0.20533554  -1.50335951  -0.83510410 
Br  -1.54291742  -3.55682711  -0.72426067 
P    1.42941867  -2.98950778   0.12591439 
H    0.95913148  -3.57749271   1.29166876 
C    0.37634837  -1.29492236  -3.86854980 
O    1.52690956  -1.69052264  -4.23998170 
O   -0.43459632  -1.85005745  -3.09069582 
O   -0.11369364  -0.12629016  -4.38776517 
H    2.75043635  -2.74486244   0.49455007 
H    1.60419136  -4.11627371  -0.66893081 
H    0.61966598   0.26975429  -4.85635266 
*
