! EnGrad PBEh-3c
%output 
xyzfile=True 
end 
%scf 
maxiter 250 
end
%output
Print[P_Hirshfeld] = 1
end
% maxcore
4000
*xyz -1 1
C   -2.37217846  -0.18609586   0.53285967 
C   -1.91669266   0.96915699   1.27646256 
C   -3.70473584  -0.50722547   0.76813676 
C   -4.65249837   0.39158825   1.24725541 
C   -4.23428211   1.59800057   1.77080566 
C   -2.86800828   1.82689067   1.86391881 
H   -2.08674448  -1.00548576  -0.62256376 
H   -4.03474057  -1.45964900   0.40175897 
H   -2.55588560   2.74678044   2.35947608 
H   -5.71294087   0.15670186   1.17558955 
H   -4.95374616   2.32184532   2.14261768 
C   -0.48728062   1.43915721   1.46476011 
C    0.63133221   0.44541309   1.79172838 
H   -0.48796427   2.20693518   2.25191021 
H   -0.18149437   2.02949535   0.59867521 
C    1.73934861   0.54997566   0.78618124 
H    0.23947771  -0.56084858   1.83518875 
H    1.03691849   0.64312136   2.78644758 
C    1.67188072  -0.11633974  -0.44956985 
C    2.68884517   0.14193369  -1.37061503 
C    3.67813934   1.09314137  -1.12966656 
C    2.81595825   1.39473320   1.06344579 
C    3.75292591   1.72287344   0.09916152 
H    2.71102691  -0.37810176  -2.31956240 
H    4.42442744   1.31009672  -1.88229497 
H    2.91209709   1.83746442   2.04696287 
H    4.53237248   2.44901675   0.30560614 
Pd   0.21147603  -1.47995680  -0.84047186 
Br  -1.55077642  -3.53874639  -0.77343548 
P    1.41972686  -2.98289495   0.13107112 
H    0.92823985  -3.56765040   1.30153178 
C    0.42518163  -1.31269035  -3.89133596 
O    1.48510776  -1.65908210  -4.21251513 
O   -0.42404581  -1.81833226  -3.08374650 
O   -0.09204108  -0.10920860  -4.40104048 
H    2.74267656  -2.74063058   0.52739731 
H    1.61198471  -4.12777807  -0.64786968 
H    0.64654882   0.26963004  -4.89740282 
*
