! EnGrad PBEh-3c
%output 
xyzfile=True 
end 
%scf 
maxiter 250 
end
%output
Print[P_Hirshfeld] = 1
end
% maxcore
4000
*xyz -1 1
C   -2.35944864  -0.19623587   0.53331313 
C   -1.91301587   0.96456386   1.27358768 
C   -3.69739150  -0.50330661   0.74912575 
C   -4.64368824   0.38975126   1.24587603 
C   -4.23074431   1.59599220   1.76122620 
C   -2.86870151   1.82640064   1.86331610 
H   -2.04419552  -1.02425222  -0.59011502 
H   -4.02689984  -1.45570346   0.38358800 
H   -2.55467703   2.74014918   2.37223708 
H   -5.70268268   0.14838688   1.17952370 
H   -4.95128434   2.32366462   2.12806017 
C   -0.48366443   1.44589965   1.46640802 
C    0.63170967   0.44126286   1.79355685 
H   -0.49133022   2.20989291   2.26324636 
H   -0.16934095   2.04370381   0.59577370 
C    1.73965481   0.54258228   0.79000659 
H    0.23148884  -0.56332551   1.83838699 
H    1.03250068   0.64572868   2.78831420 
C    1.66656702  -0.11687335  -0.44691821 
C    2.67967306   0.13881701  -1.37404943 
C    3.67043267   1.08854902  -1.12951452 
C    2.80833269   1.39811788   1.06127804 
C    3.75017560   1.71126642   0.09831510 
H    2.69755357  -0.37694369  -2.32249246 
H    4.41336554   1.30713981  -1.88609293 
H    2.89925719   1.84283105   2.04412521 
H    4.53021540   2.43720138   0.30537684 
Pd   0.19828665  -1.46829612  -0.83381190 
Br  -1.57288245  -3.50938531  -0.77640560 
P    1.42171577  -2.97967589   0.12713440 
H    0.93285575  -3.56837231   1.30187388 
C    0.39758588  -1.30245872  -3.88812098 
O    1.50145606  -1.66281538  -4.21561161 
O   -0.42484297  -1.82113186  -3.06772537 
O   -0.08675090  -0.10551757  -4.39534180 
H    2.75119554  -2.73782607   0.52106502 
H    1.61065589  -4.12807352  -0.65615973 
H    0.64548126   0.27082537  -4.89787271 
*
