! EnGrad PBEh-3c
%output 
xyzfile=True 
end 
%scf 
maxiter 250 
end
%output
Print[P_Hirshfeld] = 1
end
% maxcore
4000
*xyz -1 1
C   -2.29711061  -0.21782435   0.54713195 
C   -1.88838634   0.96671690   1.28433743 
C   -3.66597945  -0.48563716   0.67445408 
C   -4.60561092   0.37059722   1.25364796 
C   -4.21535887   1.59024781   1.76411332 
C   -2.85594474   1.81419626   1.88521317 
H   -1.88987134  -1.23669796  -0.52990418 
H   -3.99677346  -1.45600437   0.34220846 
H   -2.54475328   2.71826264   2.42517162 
H   -5.64968322   0.12488307   1.19740712 
H   -4.94028832   2.33149584   2.08850435 
C   -0.46740253   1.50082729   1.46309688 
C    0.62546683   0.43985951   1.80359321 
H   -0.48468011   2.23955925   2.28278923 
H   -0.16437986   2.05340121   0.56206333 
C    1.73976557   0.51819560   0.80316982 
H    0.19012257  -0.56744767   1.84461801 
H    1.01404283   0.66438895   2.80231847 
C    1.64335693  -0.11888550  -0.44562809 
C    2.64033421   0.13407310  -1.38731811 
C    3.65134901   1.05640526  -1.13279915 
C    2.77729951   1.41394453   1.05641283 
C    3.74392806   1.67473188   0.10177357 
H    2.64895138  -0.38889497  -2.33607289 
H    4.37772331   1.28723574  -1.89998757 
H    2.84538146   1.87125632   2.03725931 
H    4.52295172   2.39485662   0.30607703 
Pd   0.13481428  -1.41906866  -0.81999199 
Br  -1.68634979  -3.35223851  -0.82428093 
P    1.42780086  -2.96431825   0.11816745 
H    0.93784272  -3.56036346   1.29631543 
C    0.35040020  -1.28060163  -3.85038257 
O    1.50693979  -1.66567359  -4.22059115 
O   -0.40615625  -1.78699272  -3.03794395 
O   -0.06299658  -0.08627770  -4.38523761 
H    2.77126342  -2.73150021   0.51073080 
H    1.60600768  -4.12173024  -0.67416173 
H    0.65262288   0.26717735  -4.91397949 
*
