! EnGrad PBEh-3c
%output 
xyzfile=True 
end 
%scf 
maxiter 250 
end
%output
Print[P_Hirshfeld] = 1
end
% maxcore
4000
*xyz -1 1
C   -2.32106945  -0.21451442   0.54139868 
C   -1.89831681   0.96257839   1.27845711 
C   -3.67942464  -0.49248257   0.70642957 
C   -4.62199817   0.37806342   1.24757271 
C   -4.22168063   1.59564333   1.75705510 
C   -2.86213042   1.81722072   1.87407806 
H   -1.94296303  -1.13434689  -0.53909571 
H   -4.00916701  -1.45312644   0.35332006 
H   -2.54831774   2.72396159   2.40960891 
H   -5.67019752   0.13216252   1.19442466 
H   -4.94254486   2.32746067   2.10035097 
C   -0.47463549   1.48077688   1.46184284 
C    0.62865667   0.43882935   1.79755950 
H   -0.49076087   2.22458991   2.27141837 
H   -0.16075995   2.05547720   0.57714980 
C    1.73900738   0.52714328   0.79799833 
H    0.20646611  -0.56756893   1.84260373 
H    1.01828291   0.65736085   2.79382060 
C    1.65353158  -0.11851120  -0.44526518 
C    2.65606116   0.13425087  -1.38126090 
C    3.65678837   1.06902469  -1.13192528 
C    2.78833759   1.40572069   1.05775066 
C    3.74598203   1.68682845   0.10042755 
H    2.66733976  -0.38217613  -2.33129916 
H    4.38989049   1.29579604  -1.89455106 
H    2.86384388   1.85991627   2.03816928 
H    4.52446868   2.40879030   0.30537413 
Pd   0.16214532  -1.43510267  -0.82140691 
Br  -1.63999632  -3.41795459  -0.80359801 
P    1.42639143  -2.97195939   0.12197019 
H    0.93650160  -3.56365477   1.29888101 
C    0.37954296  -1.28797509  -3.87808220 
O    1.49982329  -1.66106320  -4.21456466 
O   -0.42143063  -1.80701495  -3.04045467 
O   -0.07142219  -0.09221633  -4.38779996 
H    2.76403882  -2.73266499   0.51372462 
H    1.60804783  -4.12538542  -0.66796916 
H    0.64852324   0.26799694  -4.90699649 
*
