! EnGrad PBEh-3c
%output 
xyzfile=True 
end 
%scf 
maxiter 250 
end
%output
Print[P_Hirshfeld] = 1
end
% maxcore
4000
*xyz -1 1
C   -2.49475733  -0.20819461   0.70165715 
C   -1.94434056   0.92896546   1.36346925 
C   -3.82404738  -0.51423200   0.89094008 
C   -4.67292228   0.40759261   1.46471241 
C   -4.22188961   1.59478128   2.00620514 
C   -2.88369908   1.82155792   2.04856656 
H   -2.48263480  -1.20204313  -1.03764713 
H   -4.12803433  -1.52468205   0.80139995 
H   -2.49532987   2.72887943   2.46810493 
H   -5.73923985   0.26201161   1.29891051 
H   -4.90670451   2.32990938   2.36173761 
C   -0.53927725   1.46484882   1.27984032 
C    0.63814603   0.48641152   1.67790843 
H   -0.43311854   2.35962015   1.86622537 
H   -0.47607843   1.75747631   0.25198351 
C    1.78551756   0.57854374   0.76264234 
H    0.23367710  -0.51083352   1.72291445 
H    0.92852291   0.75372378   2.68158064 
C    1.76698519  -0.05773919  -0.49932192 
C    2.82817021   0.12915793  -1.37678803 
C    3.80300665   1.09645820  -1.09023221 
C    2.82302310   1.44951692   1.04857108 
C    3.82521760   1.73053928   0.12373333 
H    2.91608957  -0.46103659  -2.27464807 
H    4.57169593   1.30177805  -1.83116361 
H    2.93103570   1.80225179   2.07052160 
H    4.51052509   2.54421298   0.32225399 
Pd   0.23219542  -1.49159785  -1.05502069 
Br  -1.38242032  -3.69028922  -1.01294919 
P    1.36627329  -2.99440585   0.22337795 
H    0.72193188  -3.50158066   1.33290318 
C    0.39575432  -1.35778103  -4.01121000 
O    1.65459386  -1.61728048  -4.19424402 
O   -0.40832593  -1.68497995  -3.03212833 
O    0.04824704  -0.03745338  -4.54049425 
H    2.62357540  -2.76071115   0.75692061 
H    1.66044663  -4.18074293  -0.46821275 
H    0.76866228   0.26872847  -5.09377607 
*
