! EnGrad PBEh-3c
%output 
xyzfile=True 
end 
%scf 
maxiter 250 
end
%output
Print[P_Hirshfeld] = 1
end
% maxcore
4000
*xyz -1 1
C   -2.46447433  -0.18661635   0.64408312 
C   -1.95804571   0.95082222   1.34696418 
C   -3.80807222  -0.48967293   0.78780655 
C   -4.66860917   0.38768881   1.43750891 
C   -4.24412680   1.58930157   1.96428568 
C   -2.88399258   1.83879899   1.97538948 
H   -2.42584734  -1.18468595  -1.03176455 
H   -4.08243519  -1.52895003   0.71234220 
H   -2.52212988   2.78336697   2.39027376 
H   -5.71420496   0.25085979   1.20172272 
H   -4.93844284   2.33437649   2.29429764 
C   -0.50371457   1.45728432   1.37997732 
C    0.66579830   0.46544590   1.73688256 
H   -0.43835940   2.32793805   2.07350411 
H   -0.40045243   1.82632716   0.36755450 
C    1.80470235   0.55684360   0.78979971 
H    0.23954068  -0.52882694   1.75835965 
H    0.99339441   0.71403256   2.73752545 
C    1.73357671  -0.06272021  -0.48892860 
C    2.78731794   0.15253880  -1.37554859 
C    3.77058216   1.10495045  -1.10872567 
C    2.82028725   1.47962527   1.05073982 
C    3.81607372   1.74091872   0.12568613 
H    2.85699933  -0.44540682  -2.28482613 
H    4.53023647   1.31087255  -1.84591317 
H    2.96254194   1.79983472   2.08139122 
H    4.52147978   2.53517311   0.31991147 
Pd   0.16482334  -1.52351833  -1.04865648 
Br  -1.40867332  -3.66043549  -0.91390498 
P    1.38312312  -2.98626871   0.18746727 
H    0.79125089  -3.53186752   1.32699199 
C    0.38044032  -1.42472867  -4.00189879 
O    1.58808970  -1.60099625  -4.19764276 
O   -0.40184480  -1.74146762  -3.01662170 
O   -0.00710949  -0.07118853  -4.47471953 
H    2.67773689  -2.76269125   0.67924038 
H    1.64185767  -4.16768226  -0.53945406 
H    0.74116329   0.29028860  -5.02902501 
*
