! EnGrad PBEh-3c
%output 
xyzfile=True 
end 
%scf 
maxiter 250 
end
%output
Print[P_Hirshfeld] = 1
end
% maxcore
4000
*xyz -1 1
C   -2.49475231  -0.21057003   0.71630975 
C   -1.95095054   0.92959997   1.37210236 
C   -3.82164143  -0.51926185   0.93307239 
C   -4.68406172   0.41557779   1.46512433 
C   -4.21732157   1.59550994   2.00953573 
C   -2.86879598   1.80282204   2.06319106 
H   -2.49372635  -1.20471035  -1.03463438 
H   -4.14454363  -1.52837127   0.81734982 
H   -2.48748456   2.71605533   2.49247376 
H   -5.74695483   0.26314033   1.32897678 
H   -4.90187035   2.33120178   2.38173685 
C   -0.54813698   1.45674950   1.25197798 
C    0.61879163   0.49724693   1.66241001 
H   -0.43050120   2.37338238   1.81213977 
H   -0.49181414   1.74393416   0.21615876 
C    1.77888196   0.58609060   0.74430401 
H    0.23223374  -0.51031179   1.71355636 
H    0.91256946   0.76409912   2.67063661 
C    1.76807209  -0.06644356  -0.50607010 
C    2.83940784   0.12557795  -1.37336500 
C    3.81273595   1.08979563  -1.09051433 
C    2.83012987   1.43610147   1.05197444 
C    3.82336658   1.73190532   0.12523591 
H    2.93041096  -0.46432835  -2.27360531 
H    4.58238306   1.29953405  -1.82694522 
H    2.92114258   1.80509665   2.06756245 
H    4.50898960   2.54593383   0.32271295 
Pd   0.26621284  -1.48161829  -1.03707543 
Br  -1.37787615  -3.69898258  -1.03990700 
P    1.35602719  -2.99103504   0.22340699 
H    0.70274981  -3.49485757   1.33774506 
C    0.41350446  -1.31369600  -3.97133578 
O    1.63708030  -1.63101703  -4.19546013 
O   -0.38182689  -1.66086854  -3.08954569 
O    0.05638461  -0.04816198  -4.55687696 
H    2.61237977  -2.75921255   0.77875104 
H    1.66569006  -4.18416876  -0.44879792 
H    0.77342450   0.25882215  -5.10680013 
*
