! EnGrad PBEh-3c
%output 
xyzfile=True 
end 
%scf 
maxiter 250 
end
%output
Print[P_Hirshfeld] = 1
end
% maxcore
4000
*xyz -1 1
C   -2.44700263  -0.17646154   0.59386858 
C   -1.93656371   0.98622532   1.32378712 
C   -3.76639920  -0.48734784   0.74207507 
C   -4.67479443   0.38233339   1.38526040 
C   -4.23679067   1.58681861   1.89955372 
C   -2.90284823   1.85369480   1.92501849 
H   -2.35347379  -1.16101745  -1.00697696 
H   -4.04654392  -1.52361156   0.60380244 
H   -2.54813230   2.81290778   2.32539620 
H   -5.70993705   0.23034054   1.13025720 
H   -4.97236262   2.34244700   2.23615464 
C   -0.48877934   1.46570951   1.46861545 
C    0.66858213   0.44919481   1.78880973 
H   -0.44445556   2.28071131   2.24418561 
H   -0.31492378   1.90506760   0.47077616 
C    1.80194065   0.54635814   0.78455036 
H    0.24751526  -0.55363099   1.79169613 
H    1.05303377   0.67574623   2.79583038 
C    1.69582750  -0.08446387  -0.47223882 
C    2.74673970   0.16018794  -1.38688815 
C    3.73821413   1.11831077  -1.10229822 
C    2.82667128   1.47489581   1.06396507 
C    3.79856069   1.75120905   0.10192015 
H    2.79789660  -0.41945676  -2.28906986 
H    4.49723170   1.31948961  -1.86621259 
H    2.98328474   1.80606604   2.09021459 
H    4.53842497   2.52571699   0.31821352 
Pd   0.14654302  -1.54348814  -0.98498011 
Br  -1.44396190  -3.63332352  -0.82768062 
P    1.39008351  -2.97421362   0.14821733 
H    0.85832279  -3.55857371   1.32093839 
C    0.31659776  -1.35786402  -3.86558083 
O    1.54681075  -1.66011674  -4.22587559 
O   -0.35274303  -1.79404101  -3.12506064 
O   -0.01273093  -0.11520737  -4.47464465 
H    2.72569576  -2.76229282   0.60511020 
H    1.62485911  -4.15195253  -0.60178798 
H    0.64973274   0.27915581  -4.91801964 
*
