! EnGrad PBEh-3c
%output 
xyzfile=True 
end 
%scf 
maxiter 250 
end
%output
Print[P_Hirshfeld] = 1
end
% maxcore
4000
*xyz -1 1
C   -2.48049784  -0.20038779   0.67975800 
C   -1.94665571   0.94650406   1.35767905 
C   -3.80515024  -0.50973472   0.87605491 
C   -4.68129520   0.40565351   1.44128295 
C   -4.22313359   1.59291536   1.97670335 
C   -2.87896143   1.81800883   2.02194309 
H   -2.45185745  -1.19166693  -1.02637795 
H   -4.11528826  -1.52695038   0.75360058 
H   -2.50558942   2.74496821   2.44259693 
H   -5.73590410   0.25334877   1.26965401 
H   -4.92291406   2.33455876   2.33827692 
C   -0.53041724   1.45942429   1.31664969 
C    0.63365534   0.48290217   1.70014349 
H   -0.43466693   2.34571774   1.94111627 
H   -0.43900794   1.79203653   0.29216842 
C    1.78576555   0.57422946   0.75631856 
H    0.23679565  -0.52324366   1.73688304 
H    0.95450157   0.73772358   2.70801008 
C    1.74650527  -0.07182307  -0.49597062 
C    2.81174408   0.13590990  -1.37740200 
C    3.79048932   1.09830811  -1.09403212 
C    2.82909739   1.44768255   1.05555394 
C    3.81596140   1.73766797   0.11827557 
H    2.89085211  -0.45093306  -2.27822186 
H    4.55696325   1.30549129  -1.83866751 
H    2.93969357   1.80538604   2.07432468 
H    4.51777680   2.53989860   0.32136976 
Pd   0.23048840  -1.50008798  -1.02152367 
Br  -1.39760440  -3.67938170  -0.97655212 
P    1.36619385  -2.98601343   0.20096100 
H    0.74919224  -3.51387843   1.33272785 
C    0.38457538  -1.32688126  -3.93976528 
O    1.61013258  -1.63970402  -4.20453991 
O   -0.37314463  -1.70062385  -3.10014779 
O    0.03575189  -0.06817670  -4.53232856 
H    2.64620743  -2.76013209   0.72691491 
H    1.65350100  -4.17455141  -0.49446928 
H    0.73649941   0.26489226  -5.05044443 
*
