! EnGrad PBEh-3c
%output 
xyzfile=True 
end 
%scf 
maxiter 250 
end
%output
Print[P_Hirshfeld] = 1
end
% maxcore
4000
*xyz -1 1
C   -2.41245496  -0.15232097   0.53304276 
C   -1.93649954   1.00626930   1.29607206 
C   -3.74957106  -0.47748139   0.67021288 
C   -4.66271782   0.36644777   1.33695838 
C   -4.26659288   1.58679679   1.84398265 
C   -2.90108882   1.87820898   1.85753182 
H   -2.27320489  -1.13034129  -0.96973418 
H   -4.00260571  -1.51799041   0.48999363 
H   -2.57752374   2.85063749   2.25103188 
H   -5.69895150   0.21066204   1.04394867 
H   -4.99858133   2.34188537   2.16356667 
C   -0.45965575   1.47343176   1.56372302 
C    0.68998896   0.42762510   1.84697007 
H   -0.45296103   2.23188801   2.44069276 
H   -0.22322638   1.98649763   0.59381853 
C    1.80273219   0.53408342   0.80820711 
H    0.25457834  -0.57567195   1.82954118 
H    1.11736628   0.63196710   2.85239631 
C    1.66820219  -0.09937876  -0.46225007 
C    2.69725786   0.17682795  -1.38356038 
C    3.70251471   1.12347834  -1.12247261 
C    2.82599965   1.48098487   1.06493705 
C    3.78250700   1.76862457   0.10228211 
H    2.73306769  -0.39796905  -2.30279851 
H    4.45362297   1.32803698  -1.88242258 
H    3.00797081   1.80992208   2.09896977 
H    4.55324518   2.51106328   0.31504272 
Pd   0.09861762  -1.56841618  -0.94645747 
Br  -1.47839639  -3.59821620  -0.72866998 
P    1.40916319  -2.96983164   0.11591552 
H    0.93384733  -3.58667193   1.31039718 
C    0.41693055  -1.32201267  -3.93509711 
O    1.47889408  -1.67721982  -4.22857128 
O   -0.44119058  -1.90183358  -3.04548476 
O   -0.10130122  -0.15705158  -4.40491197 
H    2.77531275  -2.76204539   0.52035916 
H    1.60477299  -4.13397412  -0.67331158 
H    0.62953636   0.29539075  -4.85208257 
*
