! EnGrad PBEh-3c
%output 
xyzfile=True 
end 
%scf 
maxiter 250 
end
%output
Print[P_Hirshfeld] = 1
end
% maxcore
4000
*xyz -1 1
C   -2.37842204  -0.12683021   0.46210329 
C   -1.92755255   1.02064121   1.27198470 
C   -3.72323718  -0.46629487   0.63984221 
C   -4.66545300   0.35150660   1.25988984 
C   -4.28156892   1.59567370   1.78372597 
C   -2.90084120   1.88170339   1.78923579 
H   -2.17752272  -1.06675878  -0.87608454 
H   -3.97335054  -1.50766124   0.36837457 
H   -2.60109660   2.87484977   2.19159927 
H   -5.68675993   0.18706345   0.98635788 
H   -5.01602048   2.33287895   2.09591851 
C   -0.44053890   1.49102987   1.63523761 
C    0.70395226   0.41513874   1.89381670 
H   -0.46478984   2.16512187   2.57423792 
H   -0.13712744   2.05754282   0.73423190 
C    1.78554116   0.53379371   0.82400935 
H    0.26337051  -0.59382900   1.86803677 
H    1.16491799   0.58708718   2.89015516 
C    1.64244890  -0.11607661  -0.45113144 
C    2.65211050   0.19204997  -1.37212915 
C    3.66682281   1.12211566  -1.14546082 
C    2.82771135   1.46079919   1.07434448 
C    3.76255080   1.78493792   0.10039523 
H    2.67310500  -0.37337497  -2.31801435 
H    4.41071881   1.33400764  -1.89610536 
H    3.01871232   1.81650656   2.09360243 
H    4.56398219   2.49060882   0.30919054 
Pd   0.08336967  -1.58020197  -0.89973049 
Br  -1.51840540  -3.56806009  -0.63701648 
P    1.43270835  -2.97728337   0.10050850 
H    1.00769697  -3.60721964   1.29121430 
C    0.27300351  -1.32553809  -3.83422682 
O    1.56053936  -1.72566875  -4.28180528 
O   -0.43195067  -1.92716859  -3.07385379 
O   -0.15773679  -0.17552374  -4.35791514 
H    2.80619216  -2.76003905   0.43955366 
H    1.58721454  -4.11106713  -0.73183079 
H    0.59317675   0.30461742  -4.78810611 
*
