! EnGrad PBEh-3c
%output 
xyzfile=True 
end 
%scf 
maxiter 250 
end
%output
Print[P_Hirshfeld] = 1
end
% maxcore
4000
%pal nprocs 4
end
*xyz -1 1
C   -1.50218000   0.06203000   0.51663000 
C   -1.46090000   0.96305000   1.59123000 
C   -2.57958000   0.19108000  -0.37453000 
C   -3.55016000   1.17252000  -0.24857000 
C   -3.48161000   2.07311000   0.80323000 
C   -2.44642000   1.94972000   1.71012000 
H   -1.27869000  -3.25956000  -2.49150000 
H   -2.67772000  -0.51051000  -1.19202000 
H   -2.38875000   2.64307000   2.54470000 
H   -4.35687000   1.23081000  -0.97070000 
H   -4.22147000   2.85650000   0.91841000 
C   -0.45196000   0.94982000   2.72386000 
C    0.87993000   0.23290000   2.53004000 
H   -0.94037000   0.52556000   3.60910000 
H   -0.23069000   1.99052000   2.98350000 
C    1.57703000   0.66499000   1.27236000 
H    0.72999000  -0.84875000   2.52800000 
H    1.50429000   0.45260000   3.40272000 
C    1.19078000   0.10492000   0.04780000 
C    1.82740000   0.56728000  -1.10567000 
C    2.80845000   1.55203000  -1.05568000 
C    2.56100000   1.64746000   1.31876000 
C    3.18177000   2.09749000   0.16180000 
H    1.58354000   0.14125000  -2.07378000 
H    3.28618000   1.88196000  -1.97111000 
H    2.84858000   2.06570000   2.27886000 
H    3.95012000   2.85950000   0.21348000 
Pd  -0.14882000  -1.37181000   0.01618000 
Br  -1.78841000  -3.38354000  -0.06783000 
P    1.52142000  -2.92571000  -0.53265000 
H    1.96079000  -3.73449000   0.53352000 
C   -0.26943000  -2.02173000  -3.54567000 
O    0.73410000  -1.78149000  -4.15800000 
O   -0.67900000  -3.24119000  -3.26690000 
O   -1.12321000  -1.09676000  -3.09955000 
H    2.79847000  -2.51114000  -0.96174000 
H    1.33740000  -3.96076000  -1.46443000 
H   -0.70505000  -0.22844000  -3.12397000 
*
