! EnGrad PBEh-3c
%output 
xyzfile=True 
end 
%scf 
maxiter 250 
end
%output
Print[P_Hirshfeld] = 1
end
% maxcore
4000
*xyz -1 1
Pd  -2.06925045  -1.56199876   0.60383884 
Cl  -3.23106306  -3.32699580  -0.41063745 
Cl  -0.15192814  -5.05742617   0.92257663 
Cl  -4.08603500  -0.93284069   1.49001215 
N   -1.02389201   0.06207089   1.38755910 
C   -1.36932852   0.63772310   2.52632792 
C   -0.83832671   1.85817067   2.95069319 
C    0.09583103   2.47685444   2.15557255 
C   -0.09204985   0.63220340   0.59486281 
C    0.48760718   1.86605014   0.95634746 
H    0.52559141   3.42439497   2.46008142 
H   -2.05778691   0.08095259   3.14863134 
H   -1.15708791   2.29577898   3.88581099 
C    0.31168184  -0.06198498  -0.58995905 
C    1.45198434   2.45455901   0.07908429 
C    1.80642695   1.83124772  -1.06900746 
C    1.26194088   0.55743233  -1.43074137 
H    1.89145789   3.40915859   0.34155286 
H    2.53412245   2.30108847  -1.72101302 
C   -0.22420066  -1.33031976  -0.89533453 
C    1.67198833  -0.09838704  -2.59963589 
C    0.17658232  -1.92049525  -2.08358093 
C    1.15290923  -1.33885062  -2.89778618 
H    2.39700575   0.36158571  -3.26116777 
H    1.48510049  -1.83480264  -3.80063256 
H   -0.66156638  -3.95223309  -0.31782675 
H   -0.28771768  -2.83293621  -2.42563179 
*
