! EnGrad PBEh-3c
%output 
xyzfile=True 
end 
%scf 
maxiter 250 
end
%output
Print[P_Hirshfeld] = 1
end
% maxcore
4000
*xyz -1 1
Pd  -1.99500232  -1.55548901   0.50082398 
Cl  -3.19773129  -3.31489809  -0.39875332 
Cl  -0.24251862  -4.90588155   0.80924898 
Cl  -4.09784682  -0.88173055   1.48158663 
N   -1.04363051   0.03881357   1.39224862 
C   -1.35647819   0.61601504   2.53868123 
C   -0.82761615   1.84167277   2.94746014 
C    0.08580799   2.46242717   2.15564486 
C   -0.08744650   0.62692514   0.60553404 
C    0.49394617   1.87385387   0.95309412 
H    0.52597362   3.41786074   2.45428872 
H   -2.05995520   0.07800260   3.14400548 
H   -1.15362335   2.28048508   3.89149152 
C    0.32569149  -0.07422116  -0.59900683 
C    1.44485909   2.44682977   0.07095632 
C    1.79742124   1.83867302  -1.06407688 
C    1.27077077   0.57053293  -1.43924581 
H    1.88115982   3.40995301   0.34196768 
H    2.52367184   2.30240233  -1.72857017 
C   -0.30843586  -1.35561849  -0.83389313 
C    1.67288122  -0.10678447  -2.59830439 
C    0.18240351  -1.92089831  -2.07131074 
C    1.15921661  -1.31909714  -2.91118071 
H    2.39480448   0.37126400  -3.26109103 
H    1.49009626  -1.83578338  -3.80875360 
H   -0.60197676  -4.05109092  -0.14684378 
H   -0.27402030  -2.85314761  -2.42438302 
*
