! EnGrad PBEh-3c
%output 
xyzfile=True 
end 
%scf 
maxiter 250 
end
%output
Print[P_Hirshfeld] = 1
end
% maxcore
4000
*xyz -1 1
Pd  -1.98320737  -1.53988151   0.46720827 
Cl  -3.18077620  -3.31149064  -0.40171188 
Cl  -0.26452938  -4.87370674   0.80202177 
Cl  -4.08508679  -0.85912055   1.46992685 
N   -1.02662025   0.04152728   1.38238560 
C   -1.35481610   0.60281746   2.53562259 
C   -0.82697203   1.83046371   2.95602357 
C    0.09118203   2.46607488   2.15354435 
C   -0.08497787   0.62034190   0.60301493 
C    0.48588069   1.86063224   0.95484324 
H    0.52279849   3.41168920   2.45123387 
H   -2.06647250   0.07234628   3.14621745 
H   -1.14951120   2.26913666   3.88981155 
C    0.30989874  -0.08091123  -0.58133077 
C    1.44273583   2.45659017   0.07652766 
C    1.79789027   1.83668246  -1.07388499 
C    1.26248058   0.55592453  -1.43442106 
H    1.87497756   3.40894593   0.34098022 
H    2.51779133   2.30417183  -1.73181046 
C   -0.29991630  -1.35097492  -0.85584110 
C    1.68105962  -0.09333673  -2.60221921 
C    0.16571736  -1.92517693  -2.04987129 
C    1.14272103  -1.33059795  -2.89811216 
H    2.39421952   0.37576888  -3.26165493 
H    1.48922814  -1.83428421  -3.80848997 
H   -0.59116531  -4.05703374  -0.10815949 
H   -0.26100576  -2.85442371  -2.41967117 
*
