! EnGrad PBEh-3c
%output 
xyzfile=True 
end 
%scf 
maxiter 250 
end
%output
Print[P_Hirshfeld] = 1
end
% maxcore
4000
*xyz -1 1
Pd  -1.96677198  -1.47014063   0.36704784 
Cl  -3.12267353  -3.30090809  -0.43023610 
Cl  -0.30897983  -4.83632758   0.89726799 
Cl  -4.01152491  -0.75565961   1.39743694 
N   -1.00184852   0.02235056   1.37562359 
C   -1.34613938   0.56214793   2.53251781 
C   -0.80816396   1.77981061   2.96240353 
C    0.08793177   2.43580087   2.15652168 
C   -0.06826802   0.61025828   0.60339050 
C    0.48861045   1.84865965   0.95455998 
H    0.51207195   3.39482709   2.44116573 
H   -2.07892243   0.04272579   3.13635672 
H   -1.13447474   2.21726396   3.89674250 
C    0.30815389  -0.08531540  -0.58309933 
C    1.42385767   2.45307027   0.06841452 
C    1.77448546   1.82618007  -1.07504825 
C    1.25225291   0.53785651  -1.41960672 
H    1.84789089   3.41539106   0.33930643 
H    2.48589918   2.30643568  -1.74846086 
C   -0.30868385  -1.33545363  -0.87197513 
C    1.65754931  -0.10145073  -2.59571112 
C    0.16140526  -1.93732011  -2.04363498 
C    1.12728511  -1.33860741  -2.87474397 
H    2.38321752   0.39049602  -3.26154609 
H    1.46554112  -1.82614850  -3.77697701 
H   -0.58828833  -3.96378357  -0.05113195 
H   -0.22358153  -2.88472450  -2.39357355 
*
