! EnGrad PBEh-3c
%output 
xyzfile=True 
end 
%scf 
maxiter 250 
end
%output
Print[P_Hirshfeld] = 1
end
% maxcore
4000
*xyz -1 1
Pd  -1.96791033  -1.44282649   0.33135035 
Cl  -3.09964985  -3.29471565  -0.45141005 
Cl  -0.33262650  -4.80732098   0.94474171 
Cl  -3.97497831  -0.69718512   1.35279342 
N   -0.99698384   0.01053054   1.37367874 
C   -1.33930548   0.54232447   2.53252480 
C   -0.79973779   1.75528571   2.96624329 
C    0.08893579   2.41954065   2.16070191 
C   -0.06181398   0.60421748   0.60698093 
C    0.49241090   1.84462662   0.95549280 
H    0.50371924   3.38286055   2.43770432 
H   -2.08073444   0.02428762   3.12628060 
H   -1.12570229   2.18713994   3.90245173 
C    0.31294372  -0.08659323  -0.58823484 
C    1.41562289   2.45310994   0.06412165 
C    1.76736094   1.82706081  -1.07726395 
C    1.25617952   0.54190415  -1.42296420 
H    1.83099907   3.41612549   0.33519984 
H    2.46290897   2.30338919  -1.75449425 
C   -0.31544051  -1.33515003  -0.87351047 
C    1.65200575  -0.10223162  -2.59701823 
C    0.16503548  -1.94331999  -2.04274479 
C    1.12905456  -1.33319151  -2.86838261 
H    2.36466758   0.38945026  -3.25332475 
H    1.45576839  -1.83004447  -3.76910407 
H   -0.58454147  -3.91347490  -0.00946171 
H   -0.20825858  -2.90603722  -2.37934504 
*
