! EnGrad PBEh-3c
%output 
xyzfile=True 
end 
%scf 
maxiter 250 
end
%output
Print[P_Hirshfeld] = 1
end
% maxcore
4000
*xyz 1 1
Sc   0.85763595  -0.59948670  -1.97963730 
C    0.23448991  -0.43827846   0.20915873 
N   -0.45787076  -1.32827597   0.93817662 
C   -0.62358607  -0.88122893   2.21600089 
C    0.01542650   0.30495521   2.29750423 
N    0.48837385   0.58293236   1.04964354 
C    1.28240075   1.75745663   0.75630595 
H    1.00482412   2.61086218   1.37112333 
H    1.11815663   2.07199775  -0.27135178 
H    2.34190253   1.55109958   0.89669310 
C   -0.96304287  -2.61345599   0.49438793 
H   -0.83875617  -2.71734496  -0.58064275 
H   -2.02289590  -2.68844557   0.72616764 
H   -0.42443392  -3.42257710   0.98369036 
H   -1.15274807  -1.43161211   2.97486479 
H    0.14608983   0.94398281   3.15356361 
C    0.08754854   1.59036548  -2.93049739 
H   -0.46107899   1.51774022  -3.87897189 
H    0.85391827   2.35569438  -3.09520339 
H   -0.62710128   1.98653879  -2.20096861 
H   -0.85922566  -1.15291400  -3.13001044 
*
