! EnGrad PBEh-3c
%output 
xyzfile=True 
end 
%scf 
maxiter 250 
end
%output
Print[P_Hirshfeld] = 1
end
% maxcore
4000
*xyz 1 1
Sc   0.64687719  -0.42935025  -2.17984675 
C    0.25969185  -0.45011296   0.20127091 
N   -0.45857923  -1.32668801   0.93943789 
C   -0.63487687  -0.87884048   2.22055001 
C   -0.03136706   0.32560062   2.29547023 
N    0.52269607   0.56462642   1.06214888 
C    1.31937113   1.75011671   0.72477483 
H    1.06210448   2.56520442   1.39863312 
H    1.10607738   2.07647907  -0.28610908 
H    2.36770467   1.51562696   0.85879286 
C   -0.95707591  -2.62077499   0.49569441 
H   -0.80640231  -2.74337450  -0.57301423 
H   -2.02421031  -2.68688410   0.69053220 
H   -0.44999221  -3.42318458   1.02918936 
H   -1.19733578  -1.41136116   2.96133494 
H    0.10708826   0.98401856   3.12832935 
C    0.11830387   1.51594895  -2.87068493 
H   -0.47210242   1.48312989  -3.82760798 
H    0.81419079   2.36506239  -3.05595254 
H   -0.63911610   1.93954640  -2.16687855 
H   -0.65264811  -1.11267790  -3.04394455 
*
