! EnGrad PBEh-3c
%output 
xyzfile=True 
end 
%scf 
maxiter 250 
end
%output
Print[P_Hirshfeld] = 1
end
% maxcore
4000
*xyz 1 1
Sc   0.60758186  -0.38506471  -2.20830566 
C    0.26210981  -0.45075112   0.20610264 
N   -0.45474300  -1.32717960   0.93376866 
C   -0.63813690  -0.87501146   2.21648407 
C   -0.03212955   0.32840124   2.28938517 
N    0.52788844   0.56200492   1.05282866 
C    1.31898154   1.74076459   0.73320151 
H    1.07375470   2.55476070   1.40205883 
H    1.10357499   2.07829920  -0.29429453 
H    2.37711344   1.50997769   0.84860364 
C   -0.95746418  -2.61929741   0.49893225 
H   -0.79891428  -2.74831840  -0.57263527 
H   -2.02463526  -2.68691078   0.68299759 
H   -0.45467701  -3.42304169   1.03703907 
H   -1.20755776  -1.41030900   2.96106008 
H    0.09791414   0.99511599   3.12626321 
C    0.11266529   1.51924302  -2.86892863 
H   -0.46587239   1.47090980  -3.80634399 
H    0.80568016   2.35736305  -3.04388973 
H   -0.63525302   1.92464524  -2.16196974 
H   -0.61772137  -1.11296800  -3.02978983 
*
