! EnGrad PBEh-3c
%output 
xyzfile=True 
end 
%scf 
maxiter 250 
end
%output
Print[P_Hirshfeld] = 1
end
% maxcore
4000
*xyz 1 1
Sc   0.60883286  -0.34168897  -2.18623402 
C    0.26352979  -0.45217160   0.19167900 
N   -0.45227676  -1.32798526   0.93478059 
C   -0.64408129  -0.86930504   2.21129861 
C   -0.02220418   0.33015237   2.28407523 
N    0.52210880   0.56110140   1.05232866 
C    1.32193112   1.73143803   0.72239996 
H    1.08016648   2.54714353   1.40769776 
H    1.10637580   2.07473116  -0.28453150 
H    2.38267081   1.50780908   0.83647886 
C   -0.95555609  -2.61893690   0.49489199 
H   -0.79131324  -2.75188329  -0.56862437 
H   -2.02719511  -2.68567794   0.67728080 
H   -0.45866160  -3.42053621   1.04106858 
H   -1.21178096  -1.40787980   2.95589191 
H    0.08754681   1.00339386   3.11949910 
C    0.10089626   1.54902768  -2.87032249 
H   -0.46297549   1.45342838  -3.79689509 
H    0.80701879   2.35016446  -3.03098499 
H   -0.63431140   1.91230099  -2.15097994 
H   -0.62109089  -1.14114069  -3.03777125 
*
