! EnGrad PBEh-3c
%output 
xyzfile=True 
end 
%scf 
maxiter 250 
end
%output
Print[P_Hirshfeld] = 1
end
% maxcore
4000
*xyz 1 1
Sc   0.61014023  -0.26352111  -2.11818271 
C    0.25651071  -0.45105319   0.18132940 
N   -0.45131823  -1.32756849   0.92457540 
C   -0.64938681  -0.85902897   2.19431564 
C   -0.00913385   0.32944978   2.27110946 
N    0.51867396   0.56075030   1.03704032 
C    1.33271961   1.71531800   0.72203753 
H    1.09858003   2.52041342   1.41390698 
H    1.11025562   2.07258302  -0.27545177 
H    2.39541200   1.49819707   0.80228741 
C   -0.95675073  -2.61765885   0.49113127 
H   -0.76827139  -2.76094116  -0.56594659 
H   -2.03036356  -2.67966257   0.66062539 
H   -0.46801072  -3.41397430   1.04998385 
H   -1.21779826  -1.39754119   2.93611176 
H    0.06268531   1.02454520   3.09569992 
C    0.07684160   1.59569401  -2.86015650 
H   -0.46789618   1.41022751  -3.79507235 
H    0.83309165   2.37039926  -3.00401997 
H   -0.65630154   1.90438931  -2.10411673 
H   -0.62220080  -1.22392731  -3.05320720 
*
