! EnGrad PBEh-3c
%output 
xyzfile=True 
end 
%scf 
maxiter 250 
end
%output
Print[P_Hirshfeld] = 1
end
% maxcore
4000
*xyz -1 1
Pt  -1.15912436  -0.96910279   0.60033143 
Cl  -0.28910093  -0.77491578   2.75725340 
Cl  -2.75744997  -2.46685636   1.17776920 
Cl  -1.84838337  -0.95678856  -1.62567555 
C    1.16947727   1.05283461  -0.61997461 
H    1.44098781   2.05306001  -0.29069181 
H    1.29848243   0.31004215   0.44586366 
H    1.92346712   0.64686410  -1.28969292 
H    0.22164401   1.10485504  -1.15517796 
*
