! EnGrad PBEh-3c
%output 
xyzfile=True 
end 
%scf 
maxiter 250 
end
%output
Print[P_Hirshfeld] = 1
end
% maxcore
4000
*xyz -1 1
Pt  -1.16183435  -0.97879588   0.59971471 
Cl  -0.29144803  -0.75968531   2.74040185 
Cl  -2.73615999  -2.43301469   1.17564387 
Cl  -1.82109124  -0.96662548  -1.62283928 
C    1.20779736   0.95625113  -0.47158294 
H    1.44771909   2.03818036  -0.26936248 
H    1.24804865   0.38321747   0.27264022 
H    1.90449184   0.65915313  -1.30614442 
H    0.20126643   1.10088791  -1.11906229 
*
