! EnGrad PBEh-3c
%output 
xyzfile=True 
end 
%scf 
maxiter 250 
end
%output
Print[P_Hirshfeld] = 1
end
% maxcore
4000
*xyz -1 1
Pt  -1.16215330  -0.97779544   0.59876894 
Cl  -0.29170740  -0.76024790   2.73822257 
Cl  -2.73763039  -2.43465423   1.17713981 
Cl  -1.82122213  -0.96615160  -1.62181846 
C    1.19502713   1.02360939  -0.56559961 
H    1.44785707   2.02637822  -0.26613166 
H    1.24783159   0.33910484   0.33193354 
H    1.90098011   0.65889316  -1.29452693 
H    0.21956139   1.09046232  -1.09867229 
*
