! EnGrad PBEh-3c
%output 
xyzfile=True 
end 
%scf 
maxiter 250 
end
%output
Print[P_Hirshfeld] = 1
end
% maxcore
4000
*xyz -1 1
Pt  -1.16233603  -0.97856423   0.59737993 
Cl  -0.29258890  -0.75690220   2.73119562 
Cl  -2.73464691  -2.42830832   1.17881931 
Cl  -1.81405286  -0.96808115  -1.62014711 
C    1.18957589   1.03222775  -0.58108849 
H    1.45228168   2.01920923  -0.25644865 
H    1.23176681   0.33927879   0.31413576 
H    1.89788272   0.66099666  -1.29381687 
H    0.22992555   1.07966264  -1.07096417 
*
