! EnGrad PBEh-3c
%output 
xyzfile=True 
end 
%scf 
maxiter 250 
end
%output
Print[P_Hirshfeld] = 1
end
% maxcore
4000
*xyz -1 1
Pt  -1.15859460  -0.97434681   0.59303945 
Cl  -0.29360821  -0.75382172   2.71862352 
Cl  -2.73920841  -2.42754593   1.18685949 
Cl  -1.80509360  -0.96898757  -1.61851676 
C    1.18678681   1.03563529  -0.59227101 
H    1.46595662   2.02405575  -0.23708565 
H    1.20319985   0.34857676   0.28525329 
H    1.90961830   0.65903004  -1.30330480 
H    0.22662074   1.05690018  -1.03398625 
*
