! EnGrad PBEh-3c
%output 
xyzfile=True 
end 
%scf 
maxiter 250 
end
%output
Print[P_Hirshfeld] = 1
end
% maxcore
4000
*xyz -1 1
Pt  -1.15894227  -0.97477200   0.59308165 
Cl  -0.29295700  -0.75326858   2.71940164 
Cl  -2.73944650  -2.42727499   1.18712204 
Cl  -1.80492182  -0.96903917  -1.61998293 
C    1.19637676   1.03216920  -0.58127885 
H    1.46513475   2.02280899  -0.23801564 
H    1.20496622   0.34988950   0.28387548 
H    1.90883621   0.65959585  -1.30456796 
H    0.21640352   1.05943497  -1.04107852 
*
