! EnGrad PBEh-3c
%output 
xyzfile=True 
end 
%scf 
maxiter 250 
end
%output
Print[P_Hirshfeld] = 1
end
% maxcore
4000
*xyz -1 1
Pt  -1.15941296  -0.97482624   0.59270145 
Cl  -0.29234827  -0.75303878   2.71897963 
Cl  -2.74081412  -2.42796245   1.18857567 
Cl  -1.80472053  -0.96870429  -1.62130241 
C    1.19687575   1.02835389  -0.57647368 
H    1.46660615   2.02452510  -0.23703149 
H    1.20489239   0.35253903   0.28184397 
H    1.91107627   0.65957136  -1.30674922 
H    0.21276950   1.05912716  -1.04209902 
*
