! EnGrad PBEh-3c
%output 
xyzfile=True 
end 
%scf 
maxiter 250 
end
%output
Print[P_Hirshfeld] = 1
end
% maxcore
4000
*xyz -1 1
Pt  -0.53008611  -0.66940628   0.34396711 
Cl  -0.02642850  -0.14461034   2.54562546 
Cl  -2.47179498  -1.81722972   1.07269574 
Cl  -1.09291899  -1.24478314  -1.82850003 
C    0.66706605   0.93256618  -0.45186465 
H    1.33685864   1.41493205   0.25207907 
H    1.01758849  -0.81580325   0.13734688 
H    1.22180736   0.71157872  -1.35811524 
H   -0.12522936   1.63037057  -0.71115058 
*
