! EnGrad PBEh-3c
%output 
xyzfile=True 
end 
%scf 
maxiter 250 
end
%output
Print[P_Hirshfeld] = 1
end
% maxcore
4000
*xyz -1 1
Pt  -0.51366544  -0.66912151   0.34165084 
Cl  -0.02714396  -0.14522075   2.54800383 
Cl  -2.47201307  -1.81836165   1.07330932 
Cl  -1.09480330  -1.24390111  -1.82995018 
C    0.66354784   0.92881843  -0.45020859 
H    1.33798921   1.41588617   0.25405826 
H    1.00357357  -0.80905089   0.13809659 
H    1.22435589   0.70923446  -1.35990213 
H   -0.12504562   1.62917702  -0.71298780 
*
