! EnGrad PBEh-3c
%output 
xyzfile=True 
end 
%scf 
maxiter 250 
end
%output
Print[P_Hirshfeld] = 1
end
% maxcore
4000
*xyz 0 1
Pd   1.92253990   0.81025440  -0.37767113 
O   -0.31617384   2.36628640  -0.32460914 
O    0.00065077   0.18977304  -0.18013535 
O    3.66619513   1.94475677  -0.72787474 
O    3.33269109   0.96907865   1.16250304 
C   -0.76174034   1.16519832  -0.25090945 
C   -2.24064051   1.01460646  -0.13849768 
H   -2.68988822   1.87257908   0.35631255 
H   -2.47486013   0.09933372   0.39713372 
H   -2.65710429   0.94989175  -1.14463179 
C    4.12260528   1.52576874   0.37165719 
C    5.56451202   1.84578373   0.62925651 
H    5.76994227   1.67076105   1.68198716 
H    5.81792973   2.87145001   0.36382158 
H    6.19124155   1.18231885   0.03072274 
C    2.03301039   0.70609722  -3.12420650 
C    0.72268697   0.41418053  -3.44954571 
C    2.94489407  -0.34807691  -3.11305640 
C    0.37579076  -0.82875670  -3.96109078 
C    1.31916815  -1.83097301  -4.04529897 
C    2.54553761  -1.64340922  -3.42388424 
H   -0.59533800  -0.94192505  -4.43187800 
H    1.09232707  -2.73640813  -4.59777180 
H    0.88798222   3.18525554  -2.31335541 
H   -0.06171296   1.16113421  -3.47800251 
H    4.00387011  -0.16757114  -2.96871369 
H    3.28547754  -2.43390400  -3.48891688 
*
