! EnGrad PBEh-3c
%output 
xyzfile=True 
end 
%scf 
maxiter 250 
end
%output
Print[P_Hirshfeld] = 1
end
% maxcore
4000
*xyz 0 1
Pd   1.80065585   1.16436128  -0.80643346 
O   -0.28938249   2.37463691  -0.37263983 
O    0.11116589   0.27735700  -0.25967370 
O    3.64298836   1.84855740  -0.77555710 
O    3.39687017   0.86461470   1.19785079 
C   -0.71817127   1.23177021  -0.22945758 
C   -2.19963372   0.98127821  -0.12474555 
H   -2.68869735   1.82642358   0.34116165 
H   -2.50103114   0.07219373   0.38772447 
H   -2.61604393   0.91253228  -1.12931446 
C    4.08937318   1.46317925   0.38730583 
C    5.53356630   1.81945248   0.64402001 
H    5.81825981   1.63919609   1.67965042 
H    5.78953140   2.84630047   0.37755754 
H    6.14988845   1.17071871   0.02379731 
C    1.80249176   0.69082561  -2.80360571 
C    0.59970038   0.44531927  -3.47906007 
C    2.89574315  -0.19991198  -3.05212104 
C    0.34869994  -0.79097858  -4.06754847 
C    1.33213378  -1.77731890  -4.04308549 
C    2.60565616  -1.46837516  -3.57403918 
H   -0.66039532  -1.02500601  -4.40368653 
H    1.09213364  -2.79470124  -4.35739926 
H    1.36803311   2.51410142  -2.37318271 
H   -0.16645172   1.21209462  -3.44120535 
H    3.93843808  -0.00128803  -2.79451775 
H    3.33726498  -2.27352172  -3.48610922 
*
