! EnGrad PBEh-3c
%output 
xyzfile=True 
end 
%scf 
maxiter 250 
end
%output
Print[P_Hirshfeld] = 1
end
% maxcore
4000
*xyz 0 1
Pd   1.82424041   1.20184780  -0.85197269 
O   -0.32503608   2.43176376  -0.37766039 
O    0.12262062   0.29375451  -0.31495748 
O    3.67579906   1.84889696  -0.78997263 
O    3.37488219   0.86651107   1.17271177 
C   -0.72632363   1.23500113  -0.23637046 
C   -2.19796041   0.97952256  -0.11790817 
H   -2.68829985   1.82134714   0.34546805 
H   -2.48813144   0.06943490   0.38732647 
H   -2.59967445   0.90738211  -1.12553732 
C    4.08913110   1.45888311   0.38375498 
C    5.53047023   1.81859172   0.64404960 
H    5.81488936   1.64238959   1.67786905 
H    5.78012834   2.84517679   0.37962796 
H    6.14692217   1.17071370   0.02585076 
C    1.77385857   0.68713194  -2.76715913 
C    0.58137719   0.43758343  -3.45193377 
C    2.86914990  -0.18630209  -3.02641079 
C    0.34450721  -0.77842989  -4.08018219 
C    1.33225853  -1.76077868  -4.06247686 
C    2.60188777  -1.44237321  -3.58324954 
H   -0.65996300  -1.03198972  -4.41742756 
H    1.09276721  -2.79586589  -4.32422095 
H    1.47530019   2.31979408  -2.33632759 
H   -0.18522137   1.20328329  -3.43070390 
H    3.90408635   0.02212782  -2.74425344 
H    3.34816171  -2.23870732  -3.51020323 
*
