! EnGrad PBEh-3c
%output 
xyzfile=True 
end 
%scf 
maxiter 250 
end
%output
Print[P_Hirshfeld] = 1
end
% maxcore
4000
*xyz 0 1
Pd   1.90161348   1.26248365  -0.74912561 
O   -0.42468000   2.52362482  -0.39170744 
O    0.10875628   0.34035729  -0.46454409 
O    3.74837980   1.86871415  -0.83085563 
O    3.29749343   0.90633584   1.06504123 
C   -0.74461956   1.30511840  -0.27663721 
C   -2.20517624   0.97954600  -0.11132311 
H   -2.69168934   1.82889212   0.36725360 
H   -2.43793600   0.05028558   0.40258287 
H   -2.58072403   0.90156732  -1.13589763 
C    4.10464846   1.50167843   0.35186059 
C    5.53903341   1.80711784   0.64803956 
H    5.79060198   1.64598592   1.68717248 
H    5.75126415   2.83823595   0.37850042 
H    6.16499300   1.16792940   0.02261914 
C    1.77978064   0.68135819  -2.84438909 
C    0.54396430   0.40301973  -3.39023569 
C    2.83261560  -0.21341806  -2.97064949 
C    0.34582815  -0.77792544  -4.06273600 
C    1.32960517  -1.74698416  -4.06569998 
C    2.58149275  -1.43588058  -3.56961660 
H   -0.62367435  -1.00408145  -4.45963617 
H    1.09889878  -2.76205149  -4.32746448 
H    1.61121391   1.94387847  -2.16846928 
H   -0.21220827   1.16351076  -3.39305473 
H    3.83431037   0.03329138  -2.66114972 
H    3.36158750  -2.18372966  -3.57572696 
*
