! EnGrad PBEh-3c
%output 
xyzfile=True 
end 
%scf 
maxiter 250 
end
%output
Print[P_Hirshfeld] = 1
end
% maxcore
4000
*xyz 0 1
Pd   1.90561334   1.28269712  -0.67582979 
O   -0.46536685   2.52668610  -0.42121635 
O    0.11803749   0.44125199  -0.53804785 
O    3.78014323   1.89755420  -0.86913798 
O    3.26092089   0.93298237   1.00803443 
C   -0.75926580   1.38810578  -0.33794892 
C   -2.19689167   0.97961254  -0.11578680 
H   -2.69930830   1.81800819   0.37484455 
H   -2.39695249   0.04181274   0.40999135 
H   -2.58388044   0.89123515  -1.13312405 
C    4.12295346   1.50576841   0.29940123 
C    5.53818897   1.78903739   0.65453898 
H    5.78164103   1.62865751   1.69777337 
H    5.73891372   2.82807710   0.38100745 
H    6.17448086   1.16441233   0.02042585 
C    1.75321159   0.66472157  -2.75472012 
C    0.53678144   0.40171383  -3.38399241 
C    2.82933300  -0.22345582  -2.95225937 
C    0.33758799  -0.79596216  -4.05022158 
C    1.33649439  -1.75251381  -4.05169950 
C    2.59877167  -1.44535292  -3.57948715 
H   -0.62746125  -0.99467099  -4.48669148 
H    1.09868853  -2.76524176  -4.33086297 
H    1.65174225   1.79902853  -2.13489783 
H   -0.24036056   1.15060583  -3.34069891 
H    3.81645845   0.03804938  -2.58851534 
H    3.39146100  -2.16651907  -3.61589226 
*
