! EnGrad PBEh-3c
%output 
xyzfile=True 
end 
%scf 
maxiter 250 
end
%output
Print[P_Hirshfeld] = 1
end
% maxcore
4000
*xyz 0 1
Pd   1.90589685   1.27489230  -0.66489517 
O   -0.46915743   2.53782587  -0.42524311 
O    0.11889740   0.45255328  -0.53962796 
O    3.77986579   1.90233355  -0.87179463 
O    3.26028953   0.93783476   1.00194293 
C   -0.76026899   1.38938696  -0.34594256 
C   -2.19619030   0.97991832  -0.11824379 
H   -2.70090918   1.81516057   0.37488717 
H   -2.39022061   0.04223108   0.41028385 
H   -2.58799457   0.88941181  -1.13232913 
C    4.12519050   1.50595535   0.29283492 
C    5.53888983   1.78617314   0.65488398 
H    5.78021897   1.62452576   1.69898998 
H    5.73859028   2.82563336   0.38187553 
H    6.17612553   1.16403313   0.02036773 
C    1.74968112   0.66092543  -2.74190628 
C    0.53934614   0.40305252  -3.38266601 
C    2.82961609  -0.22203544  -2.94899667 
C    0.33710274  -0.79725750  -4.04644093 
C    1.33680249  -1.75662152  -4.04809326 
C    2.60154653  -1.44568022  -3.57904874 
H   -0.62883366  -0.99407732  -4.48947169 
H    1.09893696  -2.76740566  -4.33496688 
H    1.64640306   1.80254886  -2.14409961 
H   -0.24236807   1.14812970  -3.33314256 
H    3.81679683   0.03543877  -2.58170966 
H    3.39742061  -2.16942706  -3.62062728 
*
