! EnGrad PBEh-3c
%output 
xyzfile=True 
end 
%scf 
maxiter 250 
end
%output
Print[P_Hirshfeld] = 1
end
% maxcore
4000
*xyz 0 1
Pd   1.90610214   0.90817309  -0.46731442 
O   -0.32793816   2.27437262  -0.33843780 
O    0.05358137   0.08686966  -0.16190705 
O    3.59801653   1.89315482  -0.73254068 
O    3.36224251   0.91824970   1.19634208 
C   -0.74759054   1.35697809  -0.23161266 
C   -2.24607687   0.98316546  -0.14848230 
H   -2.68484322   1.87028071   0.35037130 
H   -2.48918901   0.09504284   0.39494603 
H   -2.65996865   0.94256227  -1.14775767 
C    4.14294923   1.56585083   0.37056903 
C    5.55968835   1.81033188   0.65118593 
H    5.78493095   1.65397960   1.67485615 
H    5.80730798   2.86165075   0.36240965 
H    6.18903555   1.17615381   0.01833070 
C    1.97435661   0.70277762  -3.10594025 
C    0.68676023   0.44898927  -3.47059124 
C    2.97653221  -0.29482969  -3.09264947 
C    0.37894902  -0.82776933  -3.97564078 
C    1.30754369  -1.83887440  -4.00506731 
C    2.56065089  -1.62209269  -3.46859782 
H   -0.59908590  -0.95440969  -4.40392646 
H    1.09767208  -2.74258352  -4.55672671 
H    0.93757761   3.13383699  -2.34938623 
H   -0.06189831   1.16305385  -3.47531123 
H    4.00341509  -0.13757608  -2.96854596 
H    3.29390398  -2.41219450  -3.46281438 
*
