! EnGrad PBEh-3c
%output 
xyzfile=True 
end 
%scf 
maxiter 250 
end
%output
Print[P_Hirshfeld] = 1
end
% maxcore
4000
*xyz 0 1
Pd   1.90174470   0.90459619  -0.46612277 
O   -0.28449592   2.37419732  -0.34841261 
O    0.05126339   0.10383150  -0.16370459 
O    3.60377245   1.89579332  -0.73096981 
O    3.36794476   0.92341146   1.18845755 
C   -0.78791116   1.23885415  -0.22054197 
C   -2.24396770   0.99125404  -0.14725126 
H   -2.68605894   1.86818127   0.34951008 
H   -2.48829681   0.09337893   0.39576318 
H   -2.66008465   0.94215955  -1.14870273 
C    4.13087058   1.55623803   0.37560091 
C    5.56187026   1.81606924   0.64563655 
H    5.78546940   1.65285865   1.67783264 
H    5.80727017   2.85878309   0.36358679 
H    6.18847972   1.17595344   0.01853826 
C    1.97715619   0.70226083  -3.10326805 
C    0.68934723   0.44140283  -3.47223807 
C    2.96646495  -0.29845602  -3.09563267 
C    0.37861144  -0.82463586  -3.97470687 
C    1.30843560  -1.83795614  -4.00585347 
C    2.56298853  -1.61530257  -3.46634358 
H   -0.60006423  -0.95506750  -4.40396678 
H    1.09726938  -2.74352202  -4.55536437 
H    0.94083454   3.13096735  -2.35083744 
H   -0.06649395   1.16736188  -3.47530507 
H    4.00777697  -0.13546960  -2.96703051 
H    3.29473436  -2.41209981  -3.46307758 
*
