! EnGrad PBEh-3c
%output 
xyzfile=True 
end 
%scf 
maxiter 250 
end
%output
Print[P_Hirshfeld] = 1
end
% maxcore
4000
*xyz 0 1
Pd   1.89307390   0.92303292  -0.48378442 
O   -0.27685824   2.38147112  -0.35266082 
O    0.05177581   0.10899117  -0.16225500 
O    3.59555637   1.88767581  -0.73066807 
O    3.38049146   0.91911740   1.18654130 
C   -0.77957029   1.22507381  -0.21471569 
C   -2.24532060   0.99223359  -0.14687891 
H   -2.68599665   1.86532045   0.34726416 
H   -2.49069166   0.09079856   0.39595457 
H   -2.66074578   0.94019403  -1.15036307 
C    4.12219791   1.55286512   0.38183917 
C    5.56266309   1.81594504   0.64382052 
H    5.78916273   1.64847120   1.67985023 
H    5.80515177   2.85364249   0.36466958 
H    6.18736482   1.17446705   0.01645476 
C    1.96846633   0.70162654  -3.09519292 
C    0.68435426   0.43988443  -3.47853417 
C    2.96198631  -0.29219750  -3.09489901 
C    0.37844357  -0.82135428  -3.97723086 
C    1.30756872  -1.83807655  -3.99892083 
C    2.56866746  -1.60339158  -3.47331396 
H   -0.60215208  -0.95842899  -4.39869086 
H    1.09770901  -2.74614519  -4.54543546 
H    0.95531703   3.11580402  -2.35942943 
H   -0.07177456   1.17271899  -3.47453129 
H    4.01186261  -0.12704596  -2.96466191 
H    3.29726188  -2.40740174  -3.45834837 
*
