! EnGrad PBEh-3c
%output 
xyzfile=True 
end 
%scf 
maxiter 250 
end
%output
Print[P_Hirshfeld] = 1
end
% maxcore
4000
*xyz 0 1
Pd   1.84115110   1.01194690  -0.58337832 
O   -0.24912833   2.38758588  -0.36668473 
O    0.04687010   0.19034696  -0.16700776 
O    3.58151573   1.85343709  -0.73718253 
O    3.41943955   0.90854589   1.19131584 
C   -0.71971635   1.15624313  -0.20355258 
C   -2.23602803   0.99698089  -0.13773100 
H   -2.68853329   1.85260342   0.34162581 
H   -2.50202151   0.07950523   0.39656237 
H   -2.66134046   0.93255337  -1.15426761 
C    4.09318769   1.52902478   0.39916657 
C    5.55807511   1.82912102   0.63639614 
H    5.80569592   1.64082513   1.69456265 
H    5.79935965   2.83812930   0.37106604 
H    6.17887092   1.17168204   0.01752141 
C    1.92877256   0.69150456  -3.01952382 
C    0.66157243   0.42943663  -3.50480727 
C    2.93909638  -0.27678242  -3.09194434 
C    0.37195065  -0.81409332  -4.00595967 
C    1.31305219  -1.82910264  -3.98823286 
C    2.59244959  -1.55565408  -3.51540090 
H   -0.61753221  -0.97301430  -4.38975513 
H    1.09433682  -2.76252042  -4.50373117 
H    1.03684823   3.00884367  -2.37442384 
H   -0.10079095   1.20179757  -3.46342142 
H    4.01921446  -0.09789439  -2.93115297 
H    3.30510696  -2.38454074  -3.45218412 
*
