! EnGrad PBEh-3c
%output 
xyzfile=True 
end 
%scf 
maxiter 250 
end
%output
Print[P_Hirshfeld] = 1
end
% maxcore
4000
*xyz 0 1
Pd   1.83040741   1.04240683  -0.61491351 
O   -0.24124413   2.37733418  -0.37087277 
O    0.07086362   0.17075656  -0.16724705 
O    3.57191512   1.84348497  -0.74091077 
O    3.42083694   0.89235626   1.20486454 
C   -0.73568774   1.19345580  -0.20219673 
C   -2.23012357   0.98833213  -0.13902411 
H   -2.68818366   1.85133514   0.34089982 
H   -2.50649141   0.07801257   0.39565829 
H   -2.65932858   0.93001404  -1.15291741 
C    4.10018765   1.53299284   0.39354799 
C    5.55492917   1.82130079   0.64149715 
H    5.80995111   1.63790024   1.69239750 
H    5.79794726   2.83860215   0.37104739 
H    6.17570628   1.17085416   0.01625258 
C    1.90943735   0.69088707  -2.99904383 
C    0.65133771   0.43885235  -3.50860433 
C    2.94469839  -0.26167327  -3.08689660 
C    0.37062736  -0.81502356  -4.01397430 
C    1.31362125  -1.82758670  -3.98491749 
C    2.59677327  -1.54858648  -3.52893430 
H   -0.62286967  -0.97902270  -4.38547671 
H    1.09479431  -2.76602297  -4.48631475 
H    1.06548131   2.97165673  -2.38208620 
H   -0.10553462   1.20455778  -3.46139657 
H    4.01452248  -0.08660598  -2.92271206 
H    3.30791118  -2.37339858  -3.44892691 
*
