! EnGrad PBEh-3c
%output 
xyzfile=True 
end 
%scf 
maxiter 250 
end
%output
Print[P_Hirshfeld] = 1
end
% maxcore
4000
*xyz 0 1
Pd   1.78701950   1.14411190  -0.77128889 
O   -0.26805619   2.33535015  -0.36982964 
O    0.10982786   0.25664273  -0.22734649 
O    3.62078713   1.84804249  -0.76778276 
O    3.40689947   0.86066996   1.21488061 
C   -0.72169440   1.24641535  -0.22616340 
C   -2.19974916   0.98125784  -0.13064687 
H   -2.68896388   1.83105627   0.33919902 
H   -2.50896001   0.07235965   0.38917488 
H   -2.62675350   0.91575901  -1.13260733 
C    4.09380544   1.47239874   0.38505882 
C    5.53639428   1.81659975   0.64547130 
H    5.81971802   1.63635178   1.68040605 
H    5.79463180   2.84723456   0.37569521 
H    6.15269420   1.17045386   0.02142716 
C    1.82213821   0.69267015  -2.83584889 
C    0.60989312   0.45096766  -3.49506381 
C    2.91470267  -0.20902512  -3.06657966 
C    0.35307865  -0.79990495  -4.05722361 
C    1.33162581  -1.78948479  -4.02759969 
C    2.60737576  -1.48693141  -3.56752633 
H   -0.65905498  -1.01879945  -4.39474517 
H    1.09229380  -2.79170309  -4.38006121 
H    1.29725822   2.63552310  -2.39055648 
H   -0.15364525   1.21587004  -3.44725547 
H    3.95972969  -0.01670921  -2.82792044 
H    3.33013886  -2.29518494  -3.47084618 
*
