! EnGrad PBEh-3c
%output 
xyzfile=True 
end 
%scf 
maxiter 250 
end
%output
Print[P_Hirshfeld] = 1
end
% maxcore
4000
*xyz -1 1
C   -2.57448675  -0.08796448   0.55133681 
C   -1.99026151   0.99694485   1.20590805 
C   -3.86784097  -0.52097193   0.80527438 
C   -4.72362758   0.34640419   1.41301847 
C   -4.24481024   1.53993357   1.93696942 
C   -2.88360431   1.76246439   1.90874917 
H   -2.05847522  -0.73672315  -0.22499711 
H   -4.16620436  -1.51695159   0.49274889 
H   -2.50248018   2.63856760   2.40113606 
H   -5.77440527   0.17225319   1.32129053 
H   -4.92693999   2.30518004   2.31035474 
C   -0.54239377   1.42488270   1.25755104 
C    0.59906810   0.45387973   1.70125731 
H   -0.50105583   2.27622731   1.95708131 
H   -0.27930345   1.80780300   0.27606154 
C    1.74269415   0.54176366   0.71730613 
H    0.20788271  -0.56159048   1.75821303 
H    0.96664308   0.71326824   2.70907495 
C    1.71909914  -0.15644171  -0.52070837 
C    2.77078490   0.12354287  -1.39851875 
C    3.75326937   1.07912885  -1.12200819 
C    2.81547410   1.39542491   1.03204815 
C    3.79022248   1.73017295   0.09988284 
H    2.83364705  -0.42316856  -2.33253291 
H    4.52150859   1.29233123  -1.85448638 
H    2.90889167   1.83072050   2.02512366 
H    4.58752103   2.43895854   0.34463787 
Pd   0.31186115  -1.65398436  -1.02625885 
Br  -1.41188391  -3.57089077  -0.80951150 
P    1.39392899  -2.99206425   0.25356745 
H    0.80439588  -3.55963378   1.37089004 
C    0.47277619  -1.19459415  -3.91244983 
O    1.58084431  -1.61064988  -4.22700787 
O   -0.34012029  -1.65866548  -3.05832556 
O   -0.02718287  -0.07662419  -4.52418793 
H    2.68314026  -2.71955996   0.70502420 
H    1.63501660  -4.12003156  -0.53247101 
H    0.72183437   0.27449282  -5.00328463 
*
