! EnGrad PBEh-3c
%output 
xyzfile=True 
end 
%scf 
maxiter 250 
end
%output
Print[P_Hirshfeld] = 1
end
% maxcore
4000
*xyz -1 1
C   -2.53768594  -0.10163426   0.55283916 
C   -1.98572905   1.02218831   1.22130146 
C   -3.86462746  -0.51388201   0.78052974 
C   -4.74543048   0.35853584   1.38097728 
C   -4.25369329   1.53327956   1.89857685 
C   -2.89742794   1.78866415   1.89666004 
H   -1.98983375  -0.71069936  -0.17994694 
H   -4.15694589  -1.49707938   0.42428584 
H   -2.50766598   2.64528904   2.37098505 
H   -5.78327030   0.15067309   1.31975594 
H   -4.92448156   2.28688655   2.28826184 
C   -0.53372863   1.42593332   1.27736809 
C    0.59307796   0.44129904   1.71017795 
H   -0.51218309   2.24444502   2.00011112 
H   -0.23083561   1.84611178   0.31536175 
C    1.73684954   0.53207635   0.72477497 
H    0.21098383  -0.57574066   1.77642731 
H    0.97719913   0.69065611   2.71356558 
C    1.71214629  -0.15789488  -0.51481259 
C    2.75625379   0.12631302  -1.39991186 
C    3.73436504   1.08217678  -1.13189705 
C    2.80873374   1.38836318   1.02801659 
C    3.78140471   1.71526514   0.09865025 
H    2.80790741  -0.41005834  -2.34156786 
H    4.50167307   1.28896905  -1.86208424 
H    2.89467158   1.83350103   2.01311087 
H    4.58022662   2.41621958   0.33954635 
Pd   0.32234787  -1.64434709  -1.00983967 
Br  -1.42924449  -3.55670761  -0.77195463 
P    1.40308295  -2.99759190   0.25053797 
H    0.83639301  -3.57829815   1.38299241 
C    0.46483855  -1.21155854  -3.91957286 
O    1.56422751  -1.59681442  -4.22100493 
O   -0.33901959  -1.65982327  -3.03807217 
O   -0.03908632  -0.07578885  -4.50550715 
H    2.70484891  -2.71577280   0.67827978 
H    1.63523175  -4.11788210  -0.55193783 
H    0.71064112   0.28692187  -4.99049974 
*
