! EnGrad PBEh-3c
%output 
xyzfile=True 
end 
%scf 
maxiter 250 
end
%output
Print[P_Hirshfeld] = 1
end
% maxcore
4000
*xyz -1 1
C   -2.50244057  -0.11190649   0.56599742 
C   -1.98572357   1.01499684   1.22452609 
C   -3.83628898  -0.49980252   0.74384929 
C   -4.74994212   0.36108270   1.33756036 
C   -4.26854103   1.54191358   1.86294799 
C   -2.91142861   1.80589957   1.87375577 
H   -1.91785920  -0.69553890  -0.13818356 
H   -4.14537629  -1.47192522   0.34911935 
H   -2.51252557   2.67655567   2.35297588 
H   -5.80352755   0.12733388   1.31805387 
H   -4.92652229   2.27058852   2.26417702 
C   -0.52131881   1.43164972   1.30366095 
C    0.59048347   0.42679760   1.72047463 
H   -0.51957865   2.21642369   2.05251697 
H   -0.18226042   1.89077051   0.36569830 
C    1.73208757   0.51703537   0.73272181 
H    0.21268760  -0.59210204   1.79549158 
H    0.98575555   0.66643570   2.71783180 
C    1.70421386  -0.16132754  -0.50940892 
C    2.73637442   0.12902565  -1.40397427 
C    3.71449665   1.08261741  -1.14100034 
C    2.79663731   1.38269657   1.02458530 
C    3.77171499   1.69710960   0.09546093 
H    2.77709328  -0.39528069  -2.35117849 
H    4.47950498   1.28619430  -1.87384370 
H    2.87652392   1.83765417   2.00355975 
H    4.57008254   2.39131807   0.33365721 
Pd   0.32991799  -1.62869728  -0.98980260 
Br  -1.45026298  -3.54003568  -0.73214985 
P    1.41290285  -3.00197175   0.24592205 
H    0.87434023  -3.59854863   1.39520522 
C    0.44254678  -1.21304947  -3.90997635 
O    1.56296607  -1.59202000  -4.22432353 
O   -0.34351581  -1.66315843  -3.01844261 
O   -0.05017625  -0.07609259  -4.48686576 
H    2.73028946  -2.71278021   0.64867685 
H    1.63704879  -4.11809178  -0.57296590 
H    0.69576852   0.29867537  -4.97664815 
*
