! EnGrad PBEh-3c
%output 
xyzfile=True 
end 
%scf 
maxiter 250 
end
%output
Print[P_Hirshfeld] = 1
end
% maxcore
4000
*xyz -1 1
C   -2.55927366  -0.25421375   0.71737850 
C   -1.99067966   0.90602787   1.35692750 
C   -3.87833683  -0.54428036   1.05472155 
C   -4.72412527   0.41936064   1.56934245 
C   -4.20861634   1.58730861   2.09781062 
C   -2.83677313   1.74834923   2.13143536 
H   -2.48150254  -1.14638235  -0.80200403 
H   -4.23958092  -1.54031701   0.90086810 
H   -2.42789965   2.61076021   2.65911175 
H   -5.79149936   0.26847136   1.50692100 
H   -4.86252780   2.33839103   2.50187805 
C   -0.59886357   1.44480298   1.06920786 
C    0.56285323   0.54086958   1.56131992 
H   -0.44357417   2.44827489   1.48634665 
H   -0.58879557   1.60241013  -0.00763389 
C    1.77703478   0.58626996   0.68982989 
H    0.20589433  -0.48218220   1.63488299 
H    0.81198128   0.85286558   2.57648325 
C    1.81092519  -0.10098202  -0.54455189 
C    2.91216698   0.09155146  -1.37447319 
C    3.86908358   1.06327215  -1.08863175 
C    2.83118889   1.42582037   1.03397671 
C    3.84494047   1.71552090   0.13228547 
H    3.01398403  -0.48925374  -2.28336028 
H    4.64526549   1.27996525  -1.81131245 
H    2.88257516   1.80263419   2.05055997 
H    4.52069503   2.53588299   0.33256726 
Pd   0.35690183  -1.50001406  -1.08310633 
Br  -1.33042981  -3.71382372  -1.15764711 
P    1.32494968  -2.97863255   0.27758666 
H    0.57905873  -3.44365957   1.35265418 
C    0.51673668  -1.21227370  -3.99577450 
O    1.64409307  -1.61453456  -4.17269406 
O   -0.36687931  -1.53652505  -3.10799077 
O    0.12913121  -0.02172775  -4.63219964 
H    2.53727623  -2.73051626   0.93081752 
H    1.69191602  -4.18946237  -0.33569347 
H    0.86021424   0.23081150  -5.22212832 
*
