! EnGrad PBEh-3c
%output 
xyzfile=True 
end 
%scf 
maxiter 250 
end
%output
Print[P_Hirshfeld] = 1
end
% maxcore
4000
*xyz -1 1
C   -2.55426864  -0.24078127   0.56541012 
C   -2.01241192   0.91432878   1.29513497 
C   -3.86527650  -0.53640944   0.94329895 
C   -4.72522465   0.39081152   1.56242202 
C   -4.22992991   1.56823961   2.07593702 
C   -2.83433560   1.75082795   2.04302757 
H   -2.37910082  -0.98168049  -0.56646951 
H   -4.21182335  -1.55619807   0.79375564 
H   -2.45650671   2.63862402   2.59461089 
H   -5.77875451   0.25077946   1.42399680 
H   -4.89662158   2.34716501   2.44053077 
C   -0.56973858   1.42930518   1.14317167 
C    0.58295608   0.51528048   1.61182309 
H   -0.45664745   2.41577597   1.65252111 
H   -0.50661515   1.65295345   0.07179483 
C    1.78921647   0.55328195   0.69891923 
H    0.20044761  -0.50128051   1.66692706 
H    0.86495550   0.81928689   2.63022377 
C    1.76306844  -0.13215345  -0.55133984 
C    2.86651184   0.10844377  -1.38373215 
C    3.84307983   1.06450814  -1.09725892 
C    2.82556036   1.45094339   1.02982365 
C    3.83316737   1.73195147   0.12890540 
H    2.95846497  -0.47827388  -2.29771195 
H    4.60994039   1.29099048  -1.82549967 
H    2.90918875   1.81166880   2.06041798 
H    4.55350484   2.51169740   0.34456204 
Pd   0.31411217  -1.58864683  -1.08252877 
Br  -1.34780272  -3.66005274  -1.03824709 
P    1.33195233  -2.95875278   0.24570019 
H    0.64010108  -3.48385215   1.36264290 
C    0.53078631  -1.18154861  -3.97084218 
O    1.60130251  -1.60590774  -4.20058195 
O   -0.36108452  -1.58842126  -3.08931669 
O    0.07587009  -0.07408746  -4.58556642 
H    2.59838334  -2.72901261   0.87055183 
H    1.66906082  -4.16924528  -0.40439523 
H    0.82421501   0.24645264  -5.15234813 
*
