! EnGrad PBEh-3c
%output 
xyzfile=True 
end 
%scf 
maxiter 250 
end
%output
Print[P_Hirshfeld] = 1
end
% maxcore
4000
*xyz -1 1
C   -2.55723634  -0.21823093   0.48846094 
C   -1.99320130   0.92321272   1.23601375 
C   -3.85014926  -0.53566062   0.88463421 
C   -4.71140947   0.37162099   1.51673140 
C   -4.23586902   1.56003123   2.03273579 
C   -2.86190474   1.76224940   1.99795159 
H   -2.29258336  -0.85400194  -0.39526454 
H   -4.19003257  -1.54956855   0.68959620 
H   -2.47909795   2.64483425   2.52305212 
H   -5.77871972   0.22697978   1.36751726 
H   -4.91574988   2.34086149   2.38739835 
C   -0.55821560   1.43447974   1.19837661 
C    0.59729033   0.49114083   1.65376817 
H   -0.46797399   2.36916689   1.78298816 
H   -0.42789889   1.70765738   0.15356377 
C    1.77305132   0.55127251   0.70161645 
H    0.20183724  -0.52183670   1.70032708 
H    0.90927702   0.78187883   2.66897840 
C    1.74237558  -0.14611543  -0.54108368 
C    2.82397532   0.11395058  -1.39248022 
C    3.81152398   1.06939727  -1.09891292 
C    2.82282859   1.43045113   1.03537178 
C    3.81856738   1.74195314   0.11229615 
H    2.91074747  -0.45923452  -2.30762243 
H    4.57922057   1.29582115  -1.83811338 
H    2.92077621   1.81995292   2.05584349 
H    4.57544551   2.49196636   0.34817934 
Pd   0.30254478  -1.62701154  -1.06071149 
Br  -1.37036732  -3.62418029  -0.94773757 
P    1.35250705  -2.96569326   0.24375783 
H    0.70268229  -3.51065343   1.35879133 
C    0.49742846  -1.17299356  -3.90388196 
O    1.60831341  -1.62491663  -4.22926143 
O   -0.34908945  -1.62485932  -3.10405181 
O    0.03717682  -0.07450628  -4.57615515 
H    2.63126811  -2.72792948   0.80439213 
H    1.65191729  -4.14811807  -0.45825088 
H    0.76982957   0.24829210  -5.07785112 
*
