! EnGrad PBEh-3c
%output 
xyzfile=True 
end 
%scf 
maxiter 250 
end
%output
Print[P_Hirshfeld] = 1
end
% maxcore
4000
*xyz -1 1
C   -2.59119506  -0.07852864   0.53190625 
C   -1.99654178   0.94878078   1.16860532 
C   -3.84207675  -0.53040471   0.79920906 
C   -4.71027116   0.34631723   1.43582783 
C   -4.24680983   1.54266401   1.95645428 
C   -2.88040609   1.75585587   1.91273676 
H   -2.09876427  -0.73091311  -0.22097889 
H   -4.16809802  -1.52927387   0.52187417 
H   -2.50363505   2.64414602   2.41520497 
H   -5.77213203   0.18337084   1.31083031 
H   -4.93301488   2.31793814   2.31516076 
C   -0.54143121   1.42925688   1.26186341 
C    0.60604634   0.45749317   1.70316058 
H   -0.49303919   2.29280059   1.95355708 
H   -0.29982338   1.79278727   0.26396368 
C    1.74705375   0.54507975   0.71303699 
H    0.20542122  -0.55551256   1.75116962 
H    0.96657697   0.72285320   2.71346448 
C    1.71778729  -0.15987342  -0.52482443 
C    2.77175949   0.12352413  -1.39920870 
C    3.76155504   1.07654013  -1.11585554 
C    2.81794745   1.40037222   1.03504805 
C    3.79351124   1.74187159   0.09870631 
H    2.84154394  -0.42918339  -2.32806968 
H    4.52926946   1.29623000  -1.85275937 
H    2.92073329   1.83090035   2.03523895 
H    4.59586101   2.45102784   0.34886530 
Pd   0.30019010  -1.66761312  -1.03261776 
Br  -1.40464744  -3.57317074  -0.81920154 
P    1.38839239  -2.98535573   0.25053523 
H    0.79369616  -3.55255911   1.36306489 
C    0.46536388  -1.17905869  -3.88204736 
O    1.59419390  -1.62508973  -4.24107856 
O   -0.33518121  -1.66181418  -3.08235847 
O   -0.02706852  -0.08289986  -4.53239280 
H    2.67746105  -2.72221727   0.71241774 
H    1.63227026  -4.11960741  -0.52967121 
H    0.72213596   0.26748893  -5.00099774 
*
