! EnGrad PBEh-3c
%output 
xyzfile=True 
end 
%scf 
maxiter 250 
end
%output
Print[P_Hirshfeld] = 1
end
% maxcore
4000
*xyz 0 1
Lu   0.10442783  -0.33815784   0.26333770 
C    0.53593441   0.46899561   2.66368984 
C    1.69211549  -0.25027339   2.28656158 
C    2.34283632   0.47805335   1.26900897 
C    1.57143261   1.62212542   0.98010107 
C    0.47494782   1.63014983   1.87253220 
H    1.81960521   2.40037708   0.27188902 
H   -0.20871285   2.45437848   2.01048009 
H   -0.12903857   0.23027382   3.47921556 
H    2.02114454  -1.18401131   2.72143978 
H    3.27191495   0.20307795   0.79283930 
C    0.64218522  -0.14490542  -2.23519164 
C   -0.52562616  -0.93483346  -2.16740246 
C    1.19308314  -2.13597418  -1.26670582 
C    1.70646812  -0.89817250  -1.70196039 
H    0.72030875   0.82219942  -2.71065994 
C   -0.18625130  -2.15737780  -1.56796850 
H   -1.47699290  -0.70048311  -2.61853418 
H    2.74055915  -0.59363482  -1.64567984 
H    1.75204720  -2.93889749  -0.80640349 
H   -0.85287131  -2.99512219  -1.42974461 
C   -2.00262600  -1.34163576   1.12963495 
H   -2.37800581  -0.96996222   2.08628188 
H   -2.00597569  -2.43790059   1.21005199 
H   -2.76504900  -1.14849889   0.36691223 
C   -1.93443492   2.22317277  -1.09001626 
H   -2.35010336   1.09615401  -0.05107320 
H   -0.93668848   2.63575707  -1.24236739 
H   -2.56084736   3.07608906  -0.82271818 
H   -2.27579704   1.82905728  -2.04756288 
*
