! EnGrad PBEh-3c
%output 
xyzfile=True 
end 
%scf 
maxiter 250 
end
%output
Print[P_Hirshfeld] = 1
end
% maxcore
4000
*xyz 0 1
Lu   0.04888907  -0.37898383   0.28942734 
C    0.51779842   0.55767357   2.65357663 
C    1.62503045  -0.23600850   2.28089596 
C    2.31909989   0.43787485   1.25623261 
C    1.62974799   1.62887207   0.97008083 
C    0.52022564   1.70748423   1.84139090 
H    1.93736287   2.38112581   0.25650727 
H   -0.16910900   2.53846050   1.91057914 
H   -0.19591613   0.32831592   3.43014107 
H    1.91745020  -1.17376134   2.73346801 
H    3.24160185   0.11382301   0.79664361 
C    0.69585016  -0.12685418  -2.26697767 
C   -0.49414718  -0.89129409  -2.23860525 
C    1.15089334  -2.10973406  -1.23660332 
C    1.71281036  -0.88894407  -1.66463717 
H    0.82758162   0.83564095  -2.73911517 
C   -0.21191828  -2.11552620  -1.60943032 
H   -1.44215345  -0.60214971  -2.66721926 
H    2.75160209  -0.60814029  -1.59128121 
H    1.68964675  -2.92483553  -0.77488212 
H   -0.91576578  -2.91476887  -1.43611619 
C   -1.95061743  -1.37511139   1.11079700 
H   -2.30903656  -1.03278752   2.08977271 
H   -1.86102718  -2.46954282   1.20569685 
H   -2.80144054  -1.23136934   0.42643028 
C   -2.04502050   2.12303505  -1.00197878 
H   -2.16614927   1.34576786  -0.23695962 
H   -0.96931507   2.35935543  -1.02403129 
H   -2.64440531   2.97919397  -0.66995464 
H   -2.40274083   1.71861771  -1.95643260 
*
