! EnGrad PBEh-3c
%output 
xyzfile=True 
end 
%scf 
maxiter 250 
end
%output
Print[P_Hirshfeld] = 1
end
% maxcore
4000
*xyz 0 1
Lu   0.06645323  -0.38459937   0.28856515 
C    0.50531457   0.57012688   2.64579917 
C    1.61302120  -0.23113284   2.28953431 
C    2.31532946   0.42869730   1.25947167 
C    1.63517673   1.62356684   0.96140992 
C    0.52055447   1.71380464   1.82328001 
H    1.96021284   2.37256445   0.25347092 
H   -0.16277800   2.54906622   1.88385366 
H   -0.21340136   0.35162646   3.41897136 
H    1.89321746  -1.17196624   2.74129003 
H    3.22441355   0.08783155   0.79162837 
C    0.70284691  -0.12190997  -2.26092392 
C   -0.48960245  -0.87598964  -2.24049602 
C    1.14294955  -2.10897981  -1.23710740 
C    1.71124622  -0.88948399  -1.65543670 
H    0.84858685   0.83823095  -2.73986915 
C   -0.21981343  -2.10361947  -1.61280610 
H   -1.43529824  -0.57871753  -2.67311355 
H    2.74915064  -0.60659270  -1.56684314 
H    1.67276947  -2.92280441  -0.76225509 
H   -0.93186232  -2.89391395  -1.43587735 
C   -1.93555487  -1.37181549   1.10641642 
H   -2.28005582  -1.03758037   2.09432421 
H   -1.81345465  -2.46693335   1.19514208 
H   -2.80298134  -1.24675802   0.43528583 
C   -2.04450741   2.09704749  -0.97336148 
H   -2.17201393   1.32026559  -0.21825724 
H   -0.98963675   2.33856411  -1.01529912 
H   -2.64047272   2.95808075  -0.66421538 
H   -2.41841167   1.72520690  -1.92943728 
*
