! EnGrad PBEh-3c
%output 
xyzfile=True 
end 
%scf 
maxiter 250 
end
%output
Print[P_Hirshfeld] = 1
end
% maxcore
4000
*xyz 0 1
Lu   0.05948364  -0.34461296   0.27344344 
C    0.53581703   0.49258677   2.66327447 
C    1.67619505  -0.24361575   2.28188916 
C    2.33997129   0.46774502   1.26484314 
C    1.59011037   1.62625062   0.98722001 
C    0.48824887   1.65028203   1.86499007 
H    1.84356604   2.39771577   0.26751064 
H   -0.19631062   2.47395181   1.99285925 
H   -0.14062418   0.25162284   3.46756713 
H    1.99935818  -1.18180811   2.72208328 
H    3.27091210   0.18797009   0.79765686 
C    0.65772853  -0.14144795  -2.25033802 
C   -0.51500543  -0.92697707  -2.18448811 
C    1.18075010  -2.12807244  -1.26290588 
C    1.71304609  -0.89621374  -1.69612844 
H    0.74298105   0.82517862  -2.71826798 
C   -0.19205308  -2.15288414  -1.57632883 
H   -1.46868062  -0.68138691  -2.63230054 
H    2.74606806  -0.59921579  -1.64001489 
H    1.73964315  -2.93630230  -0.80157994 
H   -0.86341442  -2.97707202  -1.43435844 
C   -1.97159328  -1.34955997   1.11981339 
H   -2.37479007  -0.98803881   2.09353972 
H   -1.98891570  -2.45094964   1.21456279 
H   -2.78021187  -1.16966895   0.37886574 
C   -2.00370834   2.13389864  -1.01342567 
H   -2.30756151   1.18890968  -0.12771005 
H   -0.92972147   2.60357772  -1.21915925 
H   -2.56347708   3.05285954  -0.79720916 
H   -2.28863966   1.81525582  -2.02202561 
*
