! EnGrad PBEh-3c
%output 
xyzfile=True 
end 
%scf 
maxiter 250 
end
%output
Print[P_Hirshfeld] = 1
end
% maxcore
4000
*xyz 0 1
Lu   0.00278293  -0.35195944   0.28494145 
C    0.53310188   0.53007457   2.66115041 
C    1.65286608  -0.24101513   2.27837265 
C    2.33370937   0.45390934   1.25821383 
C    1.62200399   1.63610571   0.98875916 
C    0.50715480   1.68127947   1.85526256 
H    1.88278099   2.39092587   0.26284053 
H   -0.17593405   2.50774579   1.96357084 
H   -0.15990404   0.28753227   3.44936978 
H    1.96153605  -1.17510865   2.72189615 
H    3.26923008   0.16219434   0.80493472 
C    0.68341641  -0.14082228  -2.26932435 
C   -0.50124523  -0.91236541  -2.21323671 
C    1.16866788  -2.12002240  -1.25255167 
C    1.71482378  -0.89305376  -1.68824663 
H    0.78046127   0.83241387  -2.73226131 
C   -0.19912753  -2.13531254  -1.59268309 
H   -1.45248562  -0.65047807  -2.65481494 
H    2.75764128  -0.60820817  -1.62956798 
H    1.71663522  -2.92932774  -0.79460035 
H   -0.88472652  -2.95195842  -1.44110864 
C   -1.94507387  -1.36284922   1.11414803 
H   -2.36164580  -1.02171137   2.09350288 
H   -1.95874945  -2.46811078   1.21997894 
H   -2.79655002  -1.20556385   0.40450702 
C   -2.05455650   2.02769332  -0.91230149 
H   -2.24233754   1.33747312  -0.25228535 
H   -0.96885930   2.52431337  -1.16660205 
H   -2.57160789   3.00732514  -0.75128218 
H   -2.31536310   1.78754019  -1.97421374 
*
