! EnGrad PBEh-3c
%output 
xyzfile=True 
end 
%scf 
maxiter 250 
end
%output
Print[P_Hirshfeld] = 1
end
% maxcore
4000
*xyz 0 1
Lu   0.00358817  -0.35458557   0.28593107 
C    0.53320853   0.53268487   2.66154992 
C    1.64977443  -0.24084740   2.27781283 
C    2.33215448   0.45283597   1.25721635 
C    1.62391572   1.63609423   0.98795196 
C    0.50965802   1.68442282   1.85486946 
H    1.88760646   2.39027777   0.26229119 
H   -0.17583720   2.51148660   1.95926396 
H   -0.16290081   0.29089555   3.44755663 
H    1.95777504  -1.17472613   2.72242041 
H    3.26806191   0.15855815   0.80477794 
C    0.68411221  -0.13987725  -2.27096943 
C   -0.50068867  -0.91038574  -2.21733510 
C    1.16802041  -2.11820593  -1.25007031 
C    1.71590866  -0.89318856  -1.68580536 
H    0.78478437   0.83284706  -2.73315344 
C   -0.19991765  -2.13331318  -1.59530320 
H   -1.45098090  -0.64654216  -2.65581826 
H    2.75728827  -0.60878851  -1.62745239 
H    1.71441517  -2.92881347  -0.79353972 
H   -0.88797650  -2.94968509  -1.44048589 
C   -1.95286374  -1.36527572   1.11657001 
H   -2.35560040  -1.02543693   2.08718894 
H   -1.95146302  -2.46557588   1.21908916 
H   -2.79361006  -1.20857725   0.41030068 
C   -2.03591477   2.05834494  -0.93936666 
H   -2.23160910   1.35074238  -0.26196266 
H   -0.99619579   2.49223488  -1.14297474 
H   -2.57425376   2.99021727  -0.74121078 
H   -2.32129727   1.77953337  -1.95728388 
*
