! EnGrad PBEh-3c
%output 
xyzfile=True 
end 
%scf 
maxiter 250 
end
%output
Print[P_Hirshfeld] = 1
end
% maxcore
4000
*xyz 0 1
Lu   0.01165944  -0.35825737   0.28642200 
C    0.53258850   0.53397077   2.66188800 
C    1.64725907  -0.24080307   2.27709962 
C    2.33066261   0.45160735   1.25652074 
C    1.62332546   1.63513928   0.98584379 
C    0.51118319   1.68696833   1.85527221 
H    1.89244670   2.38984720   0.26162464 
H   -0.17687900   2.51424576   1.95448562 
H   -0.16634416   0.29343380   3.44632399 
H    1.95483496  -1.17496863   2.72365310 
H    3.26548615   0.15450252   0.80373906 
C    0.68396853  -0.13861497  -2.27064652 
C   -0.50020605  -0.90891037  -2.22052996 
C    1.16692120  -2.11609340  -1.24747223 
C    1.71558062  -0.89279980  -1.68308010 
H    0.78868194   0.83296162  -2.73345983 
C   -0.20104821  -2.13220150  -1.59743646 
H   -1.45088860  -0.64236286  -2.65594403 
H    2.75616053  -0.60855854  -1.62426343 
H    1.71296950  -2.92895834  -0.79197203 
H   -0.89076532  -2.94734217  -1.43916161 
C   -1.96209983  -1.36829136   1.11829442 
H   -2.34869756  -1.02655857   2.08188110 
H   -1.94135488  -2.46215708   1.21738218 
H   -2.78992453  -1.20989583   0.41449908 
C   -2.01140913   2.11562283  -0.99180104 
H   -2.22375982   1.33889339  -0.24620538 
H   -1.01446495   2.45736234  -1.11447139 
H   -2.58382312   2.97967299  -0.72878584 
H   -2.33196804   1.76754687  -1.94868679 
*
