! EnGrad PBEh-3c
%output 
xyzfile=True 
end 
%scf 
maxiter 250 
end
%output
Print[P_Hirshfeld] = 1
end
% maxcore
4000
*xyz 0 1
Lu   0.01428315  -0.36884319   0.29107886 
C    0.52867046   0.54769164   2.66091949 
C    1.63667624  -0.24014804   2.27556387 
C    2.32612284   0.44470614   1.25381903 
C    1.62948326   1.63531372   0.98143310 
C    0.51804040   1.70020326   1.85296030 
H    1.91330986   2.38693893   0.25907575 
H   -0.17295123   2.52746593   1.93594108 
H   -0.17887202   0.30848524   3.43871218 
H    1.93836071  -1.17368927   2.72643437 
H    3.25820072   0.13837546   0.80287178 
C    0.69191919  -0.13534139  -2.27319239 
C   -0.49530912  -0.90307082  -2.23312323 
C    1.15915979  -2.11147298  -1.24011710 
C    1.71421929  -0.88931414  -1.67593015 
H    0.80696490   0.83505447  -2.73769221 
C   -0.20555398  -2.12582224  -1.60509789 
H   -1.44736535  -0.62458558  -2.66235149 
H    2.75662424  -0.60985344  -1.61346459 
H    1.70350793  -2.92707830  -0.78624197 
H   -0.90143353  -2.93383845  -1.43822459 
C   -1.95788235  -1.37572591   1.11410460 
H   -2.33487647  -1.03289570   2.08273660 
H   -1.91051605  -2.46593788   1.21523984 
H   -2.79526167  -1.22057826   0.42296430 
C   -2.03928677   2.12565877  -1.00613814 
H   -2.18230429   1.37161923  -0.26455092 
H   -0.99074954   2.39734617  -1.05845704 
H   -2.61540134   2.97319960  -0.69203821 
H   -2.36571296   1.73513337  -1.94784155 
*
