38
autodE path point 0. E = -3847.791013807213 charge = -1 mult = 1 
C    -2.83860  -0.33444   0.83366
C    -2.18519   0.87771   1.05464
C    -4.00482  -0.64320   1.51734
C    -4.54291   0.25328   2.43114
C    -3.90471   1.46388   2.65415
C    -2.73558   1.76832   1.97091
H    -2.43278  -1.03772   0.11269
H    -4.49697  -1.58872   1.32812
H    -2.24170   2.71717   2.14915
H    -5.45513   0.01061   2.96169
H    -4.31820   2.17396   3.35984
C    -0.88340   1.17139   0.36713
C     0.29308   0.55551   1.14002
H    -0.72742   2.25024   0.28467
H    -0.89942   0.78427  -0.65276
C     1.60731   0.63149   0.40868
H     0.04409  -0.48449   1.37125
H     0.37460   1.05957   2.10853
C     1.90897  -0.21973  -0.66512
C     3.14512  -0.08200  -1.29567
C     4.06557   0.87244  -0.88155
C     2.53604   1.59262   0.80614
C     3.76217   1.71850   0.17337
H     3.38622  -0.71899  -2.13789
H     5.01872   0.95534  -1.39088
H     2.29155   2.25252   1.63295
H     4.47129   2.46866   0.50185
Pd    0.60687  -1.56558  -1.35155
Br   -1.19186  -3.31182  -1.91934
P     0.98771  -2.88746   0.37932
H    -0.06776  -3.22452   1.24259
C     0.98774  -0.67769  -3.99442
O     1.86654  -1.52303  -4.09651
O     0.29493  -0.36277  -2.98149
O     0.66216   0.07339  -5.08519
H     1.94478  -2.55293   1.36117
H     1.44544  -4.18323   0.09421
H     1.22558  -0.25254  -5.79281
38
autodE path point 1. E = -3847.75845806597 charge = -1 mult = 1 
C    -2.78518  -0.24297   0.81127
C    -2.10558   0.82344   1.15372
C    -3.99378  -0.61031   1.27457
C    -4.65550   0.31580   2.07771
C    -4.04955   1.50287   2.45252
C    -2.73588   1.69907   2.02010
H    -2.35158  -0.98707   0.04487
H    -4.47044  -1.54489   1.09102
H    -2.24469   2.60322   2.40396
H    -5.70133   0.15884   2.33293
H    -4.59723   2.27610   3.01283
C    -0.74162   1.26250   0.63891
C     0.41965   0.53461   1.32457
H    -0.60705   2.35120   0.77368
H    -0.73838   1.09249  -0.44291
C     1.69952   0.58409   0.52802
H     0.10645  -0.49696   1.48218
H     0.56139   0.97274   2.31486
C     1.85485  -0.19181  -0.64422
C     3.04061   0.00191  -1.35567
C     3.98404   0.96523  -1.00100
C     2.65941   1.53572   0.90204
C     3.80369   1.72572   0.14545
H     3.21605  -0.60151  -2.24118
H     4.85071   1.12679  -1.62696
H     2.54477   2.06363   1.84353
H     4.50991   2.50070   0.41796
Pd    0.52759  -1.63849  -1.27104
Br   -1.14197  -3.49299  -1.68313
P     1.13954  -2.92677   0.38069
H     0.19462  -3.32533   1.34836
C     0.77147  -0.84743  -3.97253
O     1.69470  -1.56937  -4.10996
O    -0.00750  -0.68327  -2.97755
O     0.43652   0.01962  -4.99966
H     2.22094  -2.62805   1.26182
H     1.57302  -4.20395  -0.02652
H     1.12436  -0.12049  -5.67678
38
autodE path point 2. E = -3847.704867304298 charge = -1 mult = 1 
C    -2.67832  -0.23509   0.62536
C    -2.06092   0.80021   1.19330
C    -3.91833  -0.57255   1.03570
C    -4.69363   0.37299   1.77416
C    -4.15822   1.54305   2.24068
C    -2.77123   1.68454   2.02758
H    -2.37311  -0.86039  -0.14302
H    -4.35269  -1.54294   0.92031
H    -2.33526   2.57233   2.55918
H    -5.77956   0.25025   1.76915
H    -4.78276   2.34771   2.67010
C    -0.63074   1.35040   0.91943
C     0.52045   0.51973   1.49656
H    -0.50971   2.40579   1.26924
H    -0.60002   1.40227  -0.17359
C     1.76164   0.55910   0.63030
H     0.16115  -0.50193   1.59183
H     0.73206   0.88779   2.50306
C     1.79693  -0.16147  -0.60077
C     2.94346   0.06935  -1.37221
C     3.90652   1.03142  -1.06036
C     2.75423   1.49598   0.98158
C     3.82390   1.73764   0.13680
H     3.06500  -0.51593  -2.27970
H     4.70599   1.24245  -1.75613
H     2.75382   1.92587   1.98099
H     4.53388   2.51621   0.37599
Pd    0.40536  -1.68971  -1.17931
Br   -1.22049  -3.63991  -1.32405
P     1.26099  -2.95484   0.32451
H     0.46092  -3.43264   1.38250
C     0.61501  -1.04737  -3.96822
O     1.61125  -1.59086  -4.15798
O    -0.26650  -1.16464  -3.02033
O     0.21203  -0.00274  -4.77768
H     2.46124  -2.70002   1.06820
H     1.65681  -4.19191  -0.23177
H     0.98106   0.10154  -5.43486
38
autodE path point 3. E = -3847.648369717512 charge = -1 mult = 1 
C    -2.54930  -0.24232   0.50572
C    -2.01173   0.90040   1.26948
C    -3.85833  -0.52502   0.90247
C    -4.70855   0.38904   1.56734
C    -4.22248   1.56760   2.06875
C    -2.81871   1.75205   2.00513
H    -2.36883  -0.93605  -0.50051
H    -4.20775  -1.54658   0.75577
H    -2.45274   2.66038   2.53212
H    -5.76268   0.25539   1.41500
H    -4.88856   2.35778   2.43245
C    -0.54738   1.41298   1.17392
C     0.59274   0.49712   1.64082
H    -0.44873   2.38970   1.72343
H    -0.46888   1.65942   0.10901
C     1.79111   0.55124   0.71191
H     0.20523  -0.51992   1.69254
H     0.88330   0.79646   2.65395
C     1.75199  -0.13680  -0.53851
C     2.85182   0.11820  -1.37163
C     3.82812   1.07282  -1.09322
C     2.80743   1.47795   1.03206
C     3.81684   1.75302   0.12995
H     2.93640  -0.46525  -2.28792
H     4.59745   1.29380  -1.81641
H     2.88280   1.86031   2.04938
H     4.54216   2.52265   0.34633
Pd    0.29499  -1.62552  -1.07744
Br   -1.34433  -3.67032  -1.04171
P     1.33049  -2.96624   0.23541
H     0.66395  -3.50747   1.36151
C     0.53223  -1.19499  -3.97481
O     1.57957  -1.61014  -4.20531
O    -0.36783  -1.56712  -3.05419
O     0.04948  -0.08468  -4.57827
H     2.61128  -2.74311   0.83886
H     1.65360  -4.17266  -0.43100
H     0.82103   0.23231  -5.17438
38
autodE path point 4. E = -3847.509213441009 charge = -1 mult = 1 
C    -2.44440  -0.17439   0.68444
C    -1.96781   1.00322   1.34525
C    -3.79572  -0.49304   0.83461
C    -4.69587   0.39051   1.41989
C    -4.25096   1.59473   1.93180
C    -2.84762   1.83631   1.95848
H    -2.35167  -1.21797  -1.01191
H    -4.09934  -1.52634   0.62187
H    -2.50780   2.75367   2.44786
H    -5.73146   0.24418   1.21710
H    -4.93623   2.35447   2.28802
C    -0.49312   1.44641   1.36549
C     0.63456   0.47571   1.74213
H    -0.43975   2.33319   2.07317
H    -0.35528   1.83843   0.36187
C     1.79834   0.55206   0.76568
H     0.23560  -0.54490   1.76106
H     0.99472   0.72355   2.74909
C     1.71960  -0.12396  -0.48328
C     2.77899   0.14935  -1.36720
C     3.76024   1.09908  -1.11474
C     2.82547   1.47207   1.05845
C     3.79715   1.76391   0.12400
H     2.83441  -0.43178  -2.29470
H     4.51905   1.31519  -1.84815
H     2.94046   1.84078   2.07757
H     4.53572   2.52650   0.32154
Pd    0.20356  -1.52674  -0.98773
Br   -1.43696  -3.65365  -0.90529
P     1.36944  -2.97316   0.15658
H     0.79917  -3.54305   1.31793
C     0.47563  -1.26365  -3.97324
O     1.55883  -1.63324  -4.21712
O    -0.43097  -1.80718  -3.05982
O    -0.03940  -0.15249  -4.45880
H     2.68939  -2.75885   0.66616
H     1.63408  -4.16388  -0.56175
H     0.71572   0.27367  -5.00029
38
autodE path point 5. E = -3847.444112826603 charge = -1 mult = 1 
C    -2.34027  -0.16989   0.80179
C    -1.92685   1.06500   1.38730
C    -3.70003  -0.47270   0.77010
C    -4.65389   0.40243   1.28237
C    -4.25179   1.63824   1.77895
C    -2.86432   1.90297   1.89232
H    -2.33833  -1.45912  -1.42175
H    -3.99480  -1.48527   0.48768
H    -2.54476   2.82817   2.37407
H    -5.68934   0.23725   1.05484
H    -4.96027   2.36127   2.15927
C    -0.45176   1.46352   1.55274
C     0.66408   0.45935   1.83268
H    -0.44979   2.24017   2.39630
H    -0.25183   2.01442   0.64837
C     1.79042   0.56462   0.81348
H     0.27021  -0.57376   1.82963
H     1.09432   0.65806   2.83499
C     1.68307  -0.10715  -0.43480
C     2.70793   0.17657  -1.35958
C     3.69357   1.12510  -1.13036
C     2.82776   1.47349   1.07708
C     3.77417   1.77285   0.11736
H     2.73333  -0.39642  -2.30058
H     4.44428   1.33343  -1.87690
H     2.97876   1.82610   2.09987
H     4.51954   2.53263   0.29732
Pd    0.10018  -1.43588  -0.87985
Br   -1.51875  -3.62100  -0.81604
P     1.40768  -2.97119   0.08081
H     0.91745  -3.56569   1.26903
C     0.41622  -1.31946  -3.96518
O     1.53467  -1.65791  -4.20866
O    -0.51518  -1.99671  -3.07261
O    -0.11147  -0.20085  -4.36355
H     2.75795  -2.76865   0.51351
H     1.61261  -4.15569  -0.67217
H     0.62576   0.28749  -4.85196
38
autodE path point 6. E = -3847.450331110703 charge = -1 mult = 1 
C    -2.20728  -0.16345   0.76634
C    -1.86713   1.08697   1.41232
C    -3.56407  -0.42664   0.65512
C    -4.57862   0.44636   1.09685
C    -4.21256   1.70411   1.60769
C    -2.85707   1.93441   1.84422
H    -2.28102  -1.76464  -1.77010
H    -3.88973  -1.42287   0.30321
H    -2.56448   2.90049   2.26649
H    -5.61129   0.25344   0.87165
H    -4.96279   2.38596   2.01019
C    -0.42360   1.45170   1.78036
C     0.70406   0.43995   1.94183
H    -0.50881   2.02649   2.77049
H    -0.13933   2.22561   1.04255
C     1.77833   0.58131   0.86670
H     0.31866  -0.61521   1.93359
H     1.20365   0.58688   2.90998
C     1.61757  -0.06645  -0.37784
C     2.60513   0.21604  -1.34451
C     3.61413   1.15624  -1.14268
C     2.81788   1.50641   1.09361
C     3.74017   1.78789   0.11199
H     2.60517  -0.34746  -2.30503
H     4.34503   1.35890  -1.89931
H     3.01907   1.81910   2.12130
H     4.49608   2.54874   0.27797
Pd   -0.03146  -1.34032  -0.67818
Br   -1.61074  -3.55501  -0.73496
P     1.45635  -2.96815  -0.00987
H     1.06031  -3.58601   1.20343
C     0.33094  -1.39371  -3.93322
O     1.45040  -1.70069  -4.17284
O    -0.60362  -2.16097  -3.13107
O    -0.20826  -0.25278  -4.24967
H     2.83726  -2.77712   0.32994
H     1.59126  -4.15049  -0.78822
H     0.52295   0.27779  -4.67719
38
autodE path point 7. E = -3847.519698599254 charge = -1 mult = 1 
C    -2.06313  -0.10400   0.63973
C    -1.78708   1.07062   1.41533
C    -3.42339  -0.36511   0.51998
C    -4.47364   0.52799   0.89200
C    -4.15409   1.75041   1.49430
C    -2.82179   1.92981   1.82804
H    -2.13311  -2.09897  -1.94382
H    -3.79391  -1.32340   0.10779
H    -2.53711   2.88907   2.30980
H    -5.52953   0.34784   0.63202
H    -4.91379   2.43936   1.86344
C    -0.42510   1.41141   1.95059
C     0.73132   0.41344   2.01689
H    -0.58017   1.77869   3.01737
H    -0.10083   2.31582   1.40307
C     1.74873   0.60072   0.90489
H     0.36500  -0.64109   2.00868
H     1.27540   0.54539   2.96762
C     1.55073  -0.02034  -0.32993
C     2.51544   0.26158  -1.33305
C     3.52912   1.20430  -1.14542
C     2.79526   1.50213   1.12136
C     3.69027   1.81474   0.10997
H     2.49121  -0.28488  -2.29957
H     4.24063   1.41222  -1.92483
H     3.02975   1.80026   2.13830
H     4.45029   2.57231   0.26180
Pd   -0.14368  -1.24848  -0.44769
Br   -1.68066  -3.49726  -0.67079
P     1.49119  -2.96117  -0.08881
H     1.20072  -3.60271   1.14866
C     0.23144  -1.47446  -3.87456
O     1.33953  -1.72881  -4.13834
O    -0.66716  -2.26184  -3.16169
O    -0.32116  -0.30152  -4.14969
H     2.90453  -2.76749   0.15973
H     1.58571  -4.15535  -0.86619
H     0.38484   0.24922  -4.53406
38
autodE path point 8. E = -3847.596685426848 charge = -1 mult = 1 
C    -1.91725  -0.00340   0.50824
C    -1.70508   1.04662   1.43515
C    -3.28121  -0.24717   0.29770
C    -4.33457   0.65547   0.62132
C    -4.05372   1.81727   1.35327
C    -2.76248   1.92956   1.80805
H    -1.83839  -2.39912  -2.16333
H    -3.64875  -1.16548  -0.19647
H    -2.49801   2.85787   2.37946
H    -5.37894   0.49377   0.31902
H    -4.82876   2.51850   1.67613
C    -0.42548   1.32337   2.15830
C     0.77351   0.37050   2.11321
H    -0.68342   1.42428   3.24431
H    -0.07350   2.34999   1.87046
C     1.72331   0.61510   0.95549
H     0.42641  -0.68113   2.09905
H     1.34628   0.49913   3.03427
C     1.44889   0.04421  -0.28126
C     2.38623   0.33734  -1.31212
C     3.40849   1.27726  -1.14475
C     2.76795   1.51663   1.15547
C     3.61574   1.86115   0.11465
H     2.34223  -0.20437  -2.28164
H     4.09462   1.49117  -1.94402
H     3.03635   1.80402   2.16482
H     4.37579   2.62380   0.25064
Pd   -0.24256  -1.22265  -0.25905
Br   -1.66410  -3.50022  -0.46088
P     1.50939  -2.95821  -0.17973
H     1.38055  -3.62950   1.07131
C     0.08895  -1.57278  -3.78904
O     1.19971  -1.75568  -4.11296
O    -0.74893  -2.43964  -3.13935
O    -0.49768  -0.40015  -3.98570
H     2.94566  -2.75005  -0.08048
H     1.54402  -4.13864  -0.98079
H     0.17714   0.21535  -4.32844
38
autodE path point 9. E = -3847.667793184298 charge = -1 mult = 1 
C    -1.77729   0.06884   0.44408
C    -1.62684   1.01806   1.46772
C    -3.11193  -0.09247   0.04600
C    -4.15832   0.80262   0.35746
C    -3.93513   1.88321   1.21640
C    -2.68378   1.92982   1.77924
H    -1.44360  -2.61863  -2.45793
H    -3.45105  -0.94706  -0.54823
H    -2.46414   2.80261   2.45931
H    -5.18998   0.67948  -0.02723
H    -4.70679   2.61584   1.47066
C    -0.43426   1.20589   2.34897
C     0.80954   0.32047   2.21579
H    -0.78356   1.08185   3.39802
H    -0.08914   2.28514   2.29867
C     1.68431   0.63042   1.02050
H     0.50646  -0.74311   2.18979
H     1.40360   0.45498   3.11684
C     1.34443   0.09785  -0.22130
C     2.24691   0.41491  -1.27466
C     3.26655   1.36291  -1.13148
C     2.72449   1.54052   1.19392
C     3.51642   1.92576   0.12362
H     2.17707  -0.10654  -2.24680
H     3.92212   1.59329  -1.95492
H     3.01482   1.83954   2.19372
H     4.27360   2.69782   0.24281
Pd   -0.28520  -1.23017  -0.13148
Br   -1.62447  -3.49800  -0.17887
P     1.51307  -2.96247  -0.25786
H     1.55358  -3.67015   0.97018
C    -0.05024  -1.68394  -3.68580
O     1.03980  -1.79416  -4.09152
O    -0.83882  -2.66886  -3.04490
O    -0.69139  -0.54083  -3.79068
H     2.94625  -2.72551  -0.32773
H     1.48263  -4.11264  -1.10358
H    -0.08128   0.14938  -4.08187
38
autodE path point 10. E = -3847.692149719012 charge = -1 mult = 1 
C    -1.66708   0.07719   0.45468
C    -1.55603   0.98754   1.51755
C    -2.92546   0.03676  -0.14495
C    -3.94357   0.97180   0.10863
C    -3.76195   1.99004   1.04106
C    -2.57777   1.94298   1.74919
H    -1.38259  -2.83215  -2.46528
H    -3.20313  -0.72377  -0.87063
H    -2.43959   2.71753   2.55194
H    -4.90985   0.94890  -0.43740
H    -4.50945   2.76701   1.22732
C    -0.44431   1.06729   2.52268
C     0.83492   0.26041   2.33264
H    -0.86183   0.77723   3.50716
H    -0.13922   2.14569   2.65261
C     1.62890   0.64306   1.10868
H     0.59876  -0.82094   2.30152
H     1.45012   0.40864   3.22187
C     1.25339   0.12116  -0.13487
C     2.08273   0.49114  -1.22073
C     3.08597   1.46012  -1.10356
C     2.65879   1.57114   1.24191
C     3.37151   2.01503   0.14011
H     1.96303   0.01221  -2.19789
H     3.68054   1.73892  -1.96487
H     2.96043   1.90414   2.23245
H     4.13054   2.78718   0.24114
Pd   -0.25840  -1.28031  -0.05233
Br   -1.62465  -3.46539   0.04534
P     1.52522  -2.96190  -0.35172
H     1.73593  -3.70913   0.83290
C    -0.16441  -1.85489  -3.59219
O     0.88518  -1.85921  -4.07193
O    -0.60209  -2.88770  -3.22225
O    -0.88743  -0.73721  -3.57806
H     2.92031  -2.66242  -0.57367
H     1.44192  -4.07100  -1.23226
H    -0.35032   0.03732  -3.80105
38
autodE path point 11. E = -3847.763004299219 charge = -1 mult = 1 
C    -1.50218   0.06203   0.51663
C    -1.46090   0.96305   1.59123
C    -2.57958   0.19108  -0.37453
C    -3.55016   1.17252  -0.24857
C    -3.48161   2.07311   0.80323
C    -2.44642   1.94972   1.71012
H    -1.27869  -3.25956  -2.49150
H    -2.67772  -0.51051  -1.19202
H    -2.38875   2.64307   2.54470
H    -4.35687   1.23081  -0.97070
H    -4.22147   2.85650   0.91841
C    -0.45196   0.94982   2.72386
C     0.87993   0.23290   2.53004
H    -0.94037   0.52556   3.60910
H    -0.23069   1.99052   2.98350
C     1.57703   0.66499   1.27236
H     0.72999  -0.84875   2.52800
H     1.50429   0.45260   3.40272
C     1.19078   0.10492   0.04780
C     1.82740   0.56728  -1.10567
C     2.80845   1.55203  -1.05568
C     2.56100   1.64746   1.31876
C     3.18177   2.09749   0.16180
H     1.58354   0.14125  -2.07378
H     3.28618   1.88196  -1.97111
H     2.84858   2.06570   2.27886
H     3.95012   2.85950   0.21348
Pd   -0.14882  -1.37181   0.01618
Br   -1.78841  -3.38354  -0.06783
P     1.52142  -2.92571  -0.53265
H     1.96079  -3.73449   0.53352
C    -0.26943  -2.02173  -3.54567
O     0.73410  -1.78149  -4.15800
O    -0.67900  -3.24119  -3.26690
O    -1.12321  -1.09676  -3.09955
H     2.79847  -2.51114  -0.96174
H     1.33740  -3.96076  -1.46443
H    -0.70505  -0.22844  -3.12397
