! EnGrad PBEh-3c
%output 
xyzfile=True 
end 
%scf 
maxiter 250 
end
%output
Print[P_Hirshfeld] = 1
end
% maxcore
4000
*xyz -1 1
Pd  -2.07167686  -1.58400999   0.63916001 
Cl  -3.29105828  -3.33485315  -0.35617647 
Cl  -0.31077673  -4.98438184   1.07046228 
Cl  -4.11997229  -0.77574604   1.32941009 
N   -1.00253990   0.03286662   1.40229180 
C   -1.34405377   0.59589389   2.54459100 
C   -0.82423296   1.82370315   2.96740633 
C    0.09328556   2.45288006   2.16303571 
C   -0.08566314   0.61085023   0.59265692 
C    0.48072829   1.84981925   0.95715927 
H    0.51615319   3.40361703   2.46501524 
H   -2.03032285   0.04201230   3.17213133 
H   -1.14106671   2.25104128   3.90757243 
C    0.32059187  -0.07953426  -0.59566935 
C    1.42971729   2.45320773   0.07212713 
C    1.78140607   1.83959645  -1.08081200 
C    1.25422226   0.55757287  -1.44189912 
H    1.85775614   3.41334938   0.33482899 
H    2.49690250   2.32048031  -1.74130764 
C   -0.18393530  -1.35963097  -0.91476113 
C    1.67009931  -0.08828616  -2.61583913 
C    0.21934288  -1.93670925  -2.10475362 
C    1.18164104  -1.33398920  -2.92117904 
H    2.38359600   0.38938157  -3.28245043 
H    1.51964988  -1.82240847  -3.82894645 
H   -0.58892690  -3.86965466  -0.28427842 
H   -0.21087029  -2.86706814  -2.44977942 
*
