! EnGrad PBEh-3c
%output 
xyzfile=True 
end 
%scf 
maxiter 250 
end
%output
Print[P_Hirshfeld] = 1
end
% maxcore
4000
*xyz -1 1
Pd  -2.02722722  -1.58485576   0.55170232 
Cl  -3.26727502  -3.31765543  -0.34237779 
Cl  -0.36083170  -4.86073897   0.96983973 
Cl  -4.11871458  -0.73268397   1.31760272 
N   -1.01854841   0.00495337   1.39687483 
C   -1.33419101   0.58740847   2.55688665 
C   -0.81593301   1.80559314   2.96421738 
C    0.08572788   2.44008944   2.16271342 
C   -0.08510150   0.60245507   0.61041577 
C    0.48706251   1.85557383   0.95035951 
H    0.51662446   3.39876301   2.46009057 
H   -2.03121330   0.03718031   3.16678552 
H   -1.13741240   2.23911737   3.91223350 
C    0.33180646  -0.09199735  -0.60670951 
C    1.42233823   2.44890016   0.06878740 
C    1.77576119   1.84385191  -1.08148086 
C    1.26095495   0.57011592  -1.44847503 
H    1.84886165   3.41330093   0.33454466 
H    2.48581731   2.32069182  -1.74545247 
C   -0.25205647  -1.38422872  -0.85556382 
C    1.67904156  -0.08488084  -2.61835641 
C    0.22907268  -1.94279982  -2.09993752 
C    1.18192972  -1.32434998  -2.93468591 
H    2.37856057   0.39621821  -3.27872939 
H    1.52296407  -1.82171913  -3.83249061 
H   -0.55826604  -3.93737683  -0.13375401 
H   -0.19840006  -2.88105191  -2.44594832 
*
