! EnGrad PBEh-3c
%output 
xyzfile=True 
end 
%scf 
maxiter 250 
end
%output
Print[P_Hirshfeld] = 1
end
% maxcore
4000
*xyz -1 1
Pd  -1.99915007  -1.57372807   0.48793965 
Cl  -3.25043846  -3.30729085  -0.33584133 
Cl  -0.40043948  -4.75609566   0.88785412 
Cl  -4.10866897  -0.69757717   1.30275386 
N   -1.01835581  -0.00053867   1.39892356 
C   -1.33165278   0.56260055   2.55113380 
C   -0.81326624   1.79404008   2.97500735 
C    0.09245915   2.44079320   2.15511932 
C   -0.07902757   0.59047991   0.60713656 
C    0.47782387   1.84633565   0.95709221 
H    0.51347794   3.39008287   2.45570914 
H   -2.03355643   0.03197005   3.16541587 
H   -1.13173610   2.22530456   3.91086117 
C    0.32250211  -0.10259055  -0.59237354 
C    1.42139201   2.45558186   0.06636744 
C    1.77267704   1.84783389  -1.08478608 
C    1.26027578   0.56176724  -1.45538816 
H    1.83986776   3.41131242   0.33336076 
H    2.47695704   2.32257405  -1.74973575 
C   -0.27389731  -1.39744065  -0.85008821 
C    1.68190416  -0.07947180  -2.61786727 
C    0.22049719  -1.94380472  -2.07201363 
C    1.17480767  -1.32058880  -2.93059549 
H    2.37906138   0.40526137  -3.28046647 
H    1.52563001  -1.82151244  -3.83716978 
H   -0.53288095  -3.99418780  -0.00729956 
H   -0.18441967  -2.89086824  -2.44261111 
*
