! EnGrad PBEh-3c
%output 
xyzfile=True 
end 
%scf 
maxiter 250 
end
%output
Print[P_Hirshfeld] = 1
end
% maxcore
4000
*xyz -1 1
Pd  -1.99241513  -1.54581232   0.45849339 
Cl  -3.23778833  -3.30750255  -0.34621718 
Cl  -0.39832729  -4.76878164   0.91579898 
Cl  -4.08866345  -0.68876842   1.30013170 
N   -1.00359104   0.00388631   1.38987028 
C   -1.33236219   0.55705355   2.54698151 
C   -0.80610489   1.78540688   2.96937659 
C    0.08692471   2.43479126   2.16203179 
C   -0.07695677   0.58892549   0.60434473 
C    0.47856412   1.83733051   0.95260550 
H    0.51257992   3.38928074   2.45291469 
H   -2.04152333   0.02653728   3.16531408 
H   -1.12954082   2.21775304   3.91144524 
C    0.31480512  -0.10669430  -0.58659744 
C    1.41490606   2.45248653   0.06811822 
C    1.76807685   1.84205211  -1.08569008 
C    1.24869123   0.54999001  -1.43896537 
H    1.83763614   3.41522402   0.33407455 
H    2.47595116   2.32502276  -1.75420916 
C   -0.26396134  -1.38431035  -0.86893437 
C    1.67575616  -0.08464166  -2.62004974 
C    0.20792169  -1.94739928  -2.06007711 
C    1.16268000  -1.32595630  -2.91140968 
H    2.38320956   0.41107473  -3.28338303 
H    1.51866429  -1.81969083  -3.82946663 
H   -0.53596803  -3.96631154  -0.01432371 
H   -0.17775143  -2.89011972  -2.43399012 
*
