! EnGrad PBEh-3c
%output 
xyzfile=True 
end 
%scf 
maxiter 250 
end
%output
Print[P_Hirshfeld] = 1
end
% maxcore
4000
*xyz -1 1
Pd  -1.97939886  -1.51581730   0.41199638 
Cl  -3.22056025  -3.30375929  -0.35635328 
Cl  -0.40504137  -4.76346227   0.93942908 
Cl  -4.06350689  -0.66571615   1.28954248 
N   -0.99891169  -0.00181775   1.38582705 
C   -1.32969689   0.54775544   2.54385029 
C   -0.80290941   1.76935230   2.97108056 
C    0.08653132   2.42454406   2.15995697 
C   -0.07174443   0.58739382   0.60441017 
C    0.48088132   1.83455616   0.95227414 
H    0.51018550   3.38525997   2.44893835 
H   -2.04793919   0.01864705   3.16110856 
H   -1.12477307   2.20358205   3.91097104 
C    0.31569858  -0.10867296  -0.58818913 
C    1.40837719   2.44955685   0.06646205 
C    1.76029318   1.83626781  -1.08519780 
C    1.24497062   0.54416350  -1.43164446 
H    1.83042743   3.41678997   0.33409201 
H    2.46824698   2.32529263  -1.75864457 
C   -0.27528362  -1.37870078  -0.86666670 
C    1.66801494  -0.08663605  -2.61655164 
C    0.20467704  -1.95226621  -2.05653651 
C    1.15628470  -1.33094339  -2.90293603 
H    2.38126276   0.41569492  -3.28241553 
H    1.50854768  -1.81652925  -3.81601673 
H   -0.53466161  -3.93620746   0.00161177 
H   -0.16913216  -2.89667949  -2.42271281 
*
