! EnGrad PBEh-3c
%output 
xyzfile=True 
end 
%scf 
maxiter 250 
end
%output
Print[P_Hirshfeld] = 1
end
% maxcore
4000
*xyz -1 1
Pd  -1.97162092  -1.47888928   0.36253904 
Cl  -3.19857669  -3.29924233  -0.37510958 
Cl  -0.40894339  -4.75972549   0.97146263 
Cl  -4.02823392  -0.63827907   1.27582861 
N   -0.99090376  -0.00716717   1.37669458 
C   -1.33052192   0.53549482   2.54456640 
C   -0.79545140   1.75156152   2.96823422 
C    0.08434704   2.41187695   2.16332431 
C   -0.06682818   0.58602347   0.60647156 
C    0.48518784   1.83109640   0.95092072 
H    0.50573260   3.37818883   2.44371567 
H   -2.05405648   0.00897359   3.15176110 
H   -1.11934618   2.18496015   3.91202251 
C    0.31718741  -0.10833656  -0.58958141 
C    1.40264566   2.44833545   0.06380160 
C    1.75361685   1.83176950  -1.08525279 
C    1.24507054   0.53993836  -1.42811587 
H    1.82009368   3.41661126   0.33288903 
H    2.45483620   2.32209945  -1.76161366 
C   -0.28548353  -1.37098976  -0.86820504 
C    1.65939797  -0.08904100  -2.61328281 
C    0.20169661  -1.95548195  -2.05308584 
C    1.15067387  -1.33360080  -2.89082534 
H    2.37240978   0.41638838  -3.27616472 
H    1.49417830  -1.81554910  -3.79909086 
H   -0.53523479  -3.89581063   0.02064849 
H   -0.16203138  -2.90847417  -2.40741299 
*
