! EnGrad PBEh-3c
%output 
xyzfile=True 
end 
%scf 
maxiter 250 
end
%output
Print[P_Hirshfeld] = 1
end
% maxcore
4000
*xyz -1 1
Pd  -1.96906836  -1.43959048   0.30824847 
Cl  -3.17027942  -3.29177909  -0.40349994 
Cl  -0.41231366  -4.74562491   1.00121413 
Cl  -3.98421512  -0.60372021   1.25873215 
N   -0.98736719  -0.01077165   1.37436322 
C   -1.32764592   0.51720265   2.53613989 
C   -0.79270910   1.72936152   2.97386643 
C    0.09023083   2.40106551   2.16073292 
C   -0.05725836   0.58456242   0.60450673 
C    0.48762348   1.82749098   0.95551723 
H    0.49805368   3.36661215   2.43823962 
H   -2.06213595  -0.00455404   3.13862223 
H   -1.11154931   2.15964232   3.91159889 
C    0.31848414  -0.10560119  -0.58846180 
C    1.39853386   2.44935497   0.05965016 
C    1.74801199   1.82972032  -1.08538349 
C    1.24831514   0.53760585  -1.42909266 
H    1.80644289   3.41540916   0.33003076 
H    2.43663308   2.31646318  -1.76479950 
C   -0.29438178  -1.36270237  -0.87453747 
C    1.65139477  -0.08957303  -2.60839922 
C    0.19583345  -1.95848225  -2.04456218 
C    1.14545139  -1.33482527  -2.87757794 
H    2.35721898   0.41346451  -3.26618128 
H    1.47710512  -1.81875999  -3.78186224 
H   -0.53598185  -3.85314389   0.05722924 
H   -0.15577355  -2.92498592  -2.38754984 
*
