! EnGrad PBEh-3c
%output 
xyzfile=True 
end 
%scf 
maxiter 250 
end
%output
Print[P_Hirshfeld] = 1
end
% maxcore
4000
*xyz -1 1
Pd  -1.97717069  -1.42614025   0.28737861 
Cl  -3.15384119  -3.28428035  -0.42802297 
Cl  -0.41258100  -4.72746481   1.01485520 
Cl  -3.95968430  -0.57829345   1.24522751 
N   -0.98246801  -0.01169325   1.36632949 
C   -1.32857358   0.50479090   2.53582922 
C   -0.78578052   1.72010725   2.97316581 
C    0.09015662   2.39197723   2.16657511 
C   -0.05396675   0.58106029   0.60499537 
C    0.49046255   1.82356095   0.95614620 
H    0.49253777   3.35946209   2.43729254 
H   -2.06457535  -0.01442440   3.12617776 
H   -1.10719742   2.14181496   3.91479992 
C    0.32057331  -0.10216059  -0.58785050 
C    1.39648982   2.45118067   0.05951666 
C    1.74608647   1.83132617  -1.08561909 
C    1.24939370   0.53901734  -1.43020776 
H    1.79753868   3.41599598   0.32638721 
H    2.42609206   2.31409244  -1.76934692 
C   -0.29314197  -1.35736051  -0.88202846 
C    1.64746585  -0.09012544  -2.60391058 
C    0.19223036  -1.96195294  -2.03793245 
C    1.14249411  -1.33619442  -2.87155807 
H    2.34667442   0.41006329  -3.26230403 
H    1.46899730  -1.82657331  -3.77752606 
H   -0.53673996  -3.82846123   0.09235993 
H   -0.15337415  -2.93511007  -2.37339598 
*
