! EnGrad PBEh-3c
%output 
xyzfile=True 
end 
%scf 
maxiter 250 
end
%output
Print[P_Hirshfeld] = 1
end
% maxcore
4000
*xyz -1 1
Pd  -1.98812397  -1.41806645   0.27213583 
Cl  -3.13712999  -3.27355431  -0.46291564 
Cl  -0.41091785  -4.70165218   1.03120900 
Cl  -3.93646618  -0.54416059   1.22745686 
N   -0.98385223  -0.01454811   1.36324072 
C   -1.32196721   0.49417314   2.52808060 
C   -0.78406688   1.70384607   2.97827486 
C    0.09547802   2.38322843   2.16852429 
C   -0.04689050   0.57941565   0.60285562 
C    0.49272491   1.81867409   0.96013478 
H    0.48528434   3.35095754   2.43909234 
H   -2.06870177  -0.02987216   3.11127518 
H   -1.10137551   2.11898641   3.91985026 
C    0.32380322  -0.09897814  -0.58942698 
C    1.39389404   2.45174618   0.05993768 
C    1.74386766   1.83471832  -1.08567567 
C    1.24884373   0.54420446  -1.42820156 
H    1.78737360   3.41992425   0.32138112 
H    2.41547710   2.31371626  -1.77772363 
C   -0.29063830  -1.35060916  -0.88724418 
C    1.64337354  -0.09417242  -2.60075166 
C    0.19193451  -1.96757991  -2.03397293 
C    1.13944271  -1.34034687  -2.86778785 
H    2.33470017   0.40574397  -3.26102983 
H    1.46134456  -1.83881462  -3.77560519 
H   -0.53810375  -3.79605010   0.14053347 
H   -0.15177282  -2.94658556  -2.35509742 
*
