! EnGrad PBEh-3c
%output 
xyzfile=True 
end 
%scf 
maxiter 250 
end
%output
Print[P_Hirshfeld] = 1
end
% maxcore
4000
*xyz 1 1
Ir   0.61361551  -0.75035950   0.51890632 
C    0.01560253  -2.90694633   1.19117053 
C    0.23572421  -2.13977779   2.35611311 
C    2.17560563  -2.13845644   1.11376258 
C    1.16881598  -2.82915253   0.36848894 
C    1.58772184  -1.71327420   2.32547525 
N   -1.09628088  -0.12558279  -0.52117432 
C   -2.48810761  -0.11664402   0.02607617 
C   -2.82100332   1.17065520   0.77136024 
H   -3.85214616   1.12619430   1.12049351 
H   -2.72771403   2.03606390   0.11443939 
H   -2.18222569   1.30505401   1.64340664 
C   -3.54389995  -0.41182745  -1.03196519 
H   -2.51144322  -0.94138996   0.74982639 
H   -4.49359663  -0.56577300  -0.53576707 
H   -3.69202009   0.41580500  -1.73172073 
H   -3.31394595  -1.31890545  -1.59745425 
C   -0.86575561   0.23193045  -1.73434221 
C    0.45609763   0.16531041  -2.26142470 
H   -1.69948989   0.53238136  -2.36415957 
C    1.54718166  -0.10038724  -1.47263667 
C    2.69240197  -0.18115365  -2.37084108 
S    0.74742584   0.32550842  -3.96919772 
C    2.40323955   0.01820414  -3.71284716 
H    2.07586092   1.36982083  -0.48187534 
H    3.73971151  -0.34050852  -2.10141575 
H    3.08573820   0.00074761  -4.57414113 
H   -0.83542571  -3.54376441   0.98959042 
H   -0.42980033  -2.08345638   3.20667342 
H    2.11805762  -1.25043913   3.15195654 
O    2.06972817   2.02912677   0.11918571 
O    0.40932743   1.17698239   1.40995817 
C    1.15642899   2.09162901   1.08431493 
C    0.96741132   3.42882386   1.82636634 
H    0.88905179   4.27895877   1.13083423 
H    1.81788128   3.66185284   2.47591589 
H    0.06385991   3.47343042   2.48249312 
H    3.19899953  -1.98604659   0.82189121 
H    1.31495201  -3.39598577  -0.53464649 
*
