! EnGrad PBEh-3c
%output 
xyzfile=True 
end 
%scf 
maxiter 250 
end
%output
Print[P_Hirshfeld] = 1
end
% maxcore
4000
*xyz 1 1
Ir   0.64737458  -0.76160320   0.49384588 
C    0.00516330  -2.91462607   1.23143394 
C    0.27676502  -2.13203143   2.37502051 
C    2.19198297  -2.18729934   1.08108526 
C    1.13628550  -2.84552982   0.36169826 
C    1.63771061  -1.71222942   2.29781418 
N   -1.08818919  -0.12780910  -0.53168042 
C   -2.47186281  -0.11073786   0.02462332 
C   -2.82266807   1.19782794   0.74184676 
H   -3.86432152   1.15240024   1.07392268 
H   -2.73499578   2.05462539   0.06944970 
H   -2.18739500   1.37026990   1.61358995 
C   -3.52853937  -0.43146146  -1.03319043 
H   -2.49788503  -0.91902243   0.77032472 
H   -4.48190437  -0.58069379  -0.53404893 
H   -3.68253831   0.38010739  -1.75289807 
H   -3.29142479  -1.34612202  -1.58381849 
C   -0.87327463   0.22916389  -1.73878170 
C    0.44614521   0.16456113  -2.25498222 
H   -1.70543630   0.54394003  -2.36807363 
C    1.54444085  -0.09867569  -1.46246718 
C    2.68736174  -0.16613461  -2.34928773 
S    0.74355041   0.31675092  -3.94338483 
C    2.39556632   0.00283012  -3.68832189 
H    1.98575312   1.28644800  -0.41129489 
H    3.73863045  -0.31844477  -2.10684285 
H    3.06419319  -0.00342648  -4.56484617 
H   -0.89376919  -3.48903990   1.03358948 
H   -0.36924088  -2.05115476   3.23769617 
H    2.19209172  -1.22864326   3.09878663 
O    2.04463472   2.14552907   0.21836998 
O    0.43563906   1.14803254   1.38780406 
C    1.14893961   2.10450492   1.09491072 
C    0.97208658   3.39796934   1.82575306 
H    0.88871780   4.25362914   1.14970735 
H    1.80229929   3.64298516   2.49234058 
H    0.07167891   3.44731451   2.47137680 
H    3.19621918  -2.01950367   0.74178517 
H    1.23570580  -3.39618699  -0.55845704 
*
