! EnGrad PBEh-3c
%output 
xyzfile=True 
end 
%scf 
maxiter 250 
end
%output
Print[P_Hirshfeld] = 1
end
% maxcore
4000
*xyz 1 1
Ir   0.68253041  -0.77670433   0.47979258 
C   -0.00409635  -2.91107129   1.28188653 
C    0.32867554  -2.12818797   2.39510499 
C    2.20047517  -2.24113883   1.04184050 
C    1.08821034  -2.87489228   0.35243887 
C    1.71664936  -1.71469451   2.24993423 
N   -1.07744458  -0.13367372  -0.53221024 
C   -2.45592741  -0.10299013   0.02672442 
C   -2.82222872   1.23517305   0.70057507 
H   -3.87655029   1.18814728   1.01068794 
H   -2.74508053   2.07753134   0.00609977 
H   -2.19857786   1.45755812   1.56869748 
C   -3.50566876  -0.45858887  -1.03605413 
H   -2.47895955  -0.88251706   0.79433645 
H   -4.46563328  -0.60144927  -0.53175262 
H   -3.66861864   0.32929171  -1.77868577 
H   -3.26111987  -1.38217412  -1.56203873 
C   -0.88692576   0.23043198  -1.74855935 
C    0.43824122   0.16855377  -2.25110975 
H   -1.70747330   0.55761637  -2.37093747 
C    1.54282655  -0.08365874  -1.44146488 
C    2.69387627  -0.15013628  -2.32918769 
S    0.73828609   0.30065934  -3.91408645 
C    2.38495727  -0.01131246  -3.66950516 
H    1.88202979   1.24231410  -0.27964522 
H    3.73662241  -0.28734601  -2.10991109 
H    3.03416410  -0.01080680  -4.54662337 
H   -0.96667547  -3.41432034   1.09937216 
H   -0.28362478  -2.00485588   3.28091359 
H    2.29183693  -1.20370597   3.02136164 
O    2.03928638   2.18669940   0.23483312 
O    0.45472561   1.10156364   1.36707735 
C    1.12037092   2.13439378   1.15063117 
C    0.95293762   3.38291676   1.85516069 
H    0.88891258   4.21952082   1.17237100 
H    1.78426806   3.61430847   2.51520841 
H    0.07935629   3.41327778   2.46005245 
H    3.19139981  -2.06825579   0.63078306 
H    1.12687111  -3.39954585  -0.58813588 
*
