! EnGrad PBEh-3c
%output 
xyzfile=True 
end 
%scf 
maxiter 250 
end
%output
Print[P_Hirshfeld] = 1
end
% maxcore
4000
*xyz 1 1
Ir   0.65629237  -0.76543382   0.49028105 
C    0.00281445  -2.91372435   1.24423198 
C    0.28993288  -2.13105648   2.38011523 
C    2.19413714  -2.20095651   1.07113025 
C    1.12409053  -2.85297804   0.35934948 
C    1.65773458  -1.71285473   2.28566873 
N   -1.08546366  -0.12929675  -0.53181481 
C   -2.46782057  -0.10877253   0.02515629 
C   -2.82255662   1.20730107   0.73137759 
H   -3.86742352   1.16146800   1.05788226 
H   -2.73755393   2.06043582   0.05338006 
H   -2.19023170   1.39241184   1.60220232 
C   -3.52273790  -0.43834272  -1.03391685 
H   -2.49308430  -0.90976231   0.77641565 
H   -4.47777697  -0.58595872  -0.53346644 
H   -3.67900738   0.36721725  -1.75943950 
H   -3.28373750  -1.35526716  -1.57829373 
C   -0.87673744   0.22948556  -1.74126194 
C    0.44414025   0.16557392  -2.25399992 
H   -1.70595301   0.54740923  -2.36880008 
C    1.54403136  -0.09486642  -1.45713964 
C    2.68901424  -0.16207640  -2.34418906 
S    0.74221504   0.31266906  -3.93595287 
C    2.39287518  -0.00075735  -3.68354875 
H    1.95944218   1.27525279  -0.37790002 
H    3.73812108  -0.31055612  -2.10762116 
H    3.05657587  -0.00529860  -4.56022369 
H   -0.91226294  -3.47008619   1.05027622 
H   -0.34752310  -2.03941037   3.24865890 
H    2.21739356  -1.22231755   3.07914665 
O    2.04327804   2.15597253   0.22254610 
O    0.44048065   1.13624503   1.38254643 
C    1.14169274   2.11208667   1.10904503 
C    0.96722917   3.39415103   1.83321273 
H    0.88876721   4.24497706   1.15545631 
H    1.79772541   3.63571090   2.49814134 
H    0.07362639   3.43868060   2.46850421 
H    3.19499667  -2.03187036   0.71362786 
H    1.20809829  -3.39703902  -0.56598551 
*
