39
Coordinates from ORCA-job reaction-4-manual-optts E -1288.400603272738
  Ir      0.623080     -0.714520      0.432250
  C       0.109550     -2.819980      0.330400
  C       0.045560     -2.362030      1.693470
  C       2.213640     -2.094100      0.944230
  C       1.427490     -2.645370     -0.134010
  C       1.362450     -1.951960      2.061650
  N      -1.045560      0.142890     -0.518620
  C      -2.309300      0.419360      0.182300
  C      -3.090690      1.583430     -0.408060
  H      -3.912170      1.832880      0.262110
  H      -3.539160      1.346620     -1.373840
  H      -2.473980      2.476070     -0.514830
  C      -3.147220     -0.853150      0.234800
  H      -2.012640      0.684140      1.198000
  H      -4.046740     -0.677180      0.822970
  H      -3.457000     -1.163930     -0.763790
  H      -2.608520     -1.677380      0.699940
  C      -0.887510      0.391930     -1.763720
  C       0.444600      0.190350     -2.271000
  H      -1.691410      0.769240     -2.388410
  C       1.522970      0.268500     -1.389450
  C       2.733450     -0.070310     -2.066210
  S       0.893380     -0.270230     -3.841060
  C       2.543060     -0.378490     -3.376840
  H       1.531480      1.227990     -0.651170
  H       3.710520     -0.031310     -1.607040
  H       3.288030     -0.641210     -4.112520
  H      -0.714710     -3.215580     -0.245420
  H      -0.812220     -2.402270      2.347910
  H       1.642630     -1.529440      3.016190
  O       1.429390      2.425370      0.172920
  O       0.549130      0.962680      1.603600
  C       0.971300      2.132210      1.280300
  C       0.907800      3.160180      2.374300
  H       0.866440      4.163750      1.959660
  H       1.813390      3.087700      2.979660
  H       0.060260      2.992420      3.035000
  H       3.269330     -1.871200      0.917280
  H       1.789270     -2.888890     -1.122220
39
Coordinates from ORCA-job reaction-4-manual-optts E -1288.400593300500
  Ir      0.623652     -0.712959      0.430079
  C       0.109094     -2.818095      0.326924
  C       0.052240     -2.360700      1.690575
  C       2.216462     -2.093777      0.930913
  C       1.424506     -2.643395     -0.144198
  C       1.371682     -1.952338      2.052887
  N      -1.045232      0.145918     -0.519484
  C      -2.308178      0.426593      0.180984
  C      -3.090991      1.585876     -0.416676
  H      -3.912017      1.839245      0.252576
  H      -3.540194      1.341876     -1.380342
  H      -2.475156      2.478302     -0.530133
  C      -3.145016     -0.846163      0.243531
  H      -2.010109      0.698475      1.194408
  H      -4.044586     -0.666266      0.830414
  H      -3.454720     -1.164951     -0.752560
  H      -2.605663     -1.666233      0.715230
  C      -0.886290      0.390294     -1.765106
  C       0.446785      0.185382     -2.270067
  H      -1.688991      0.766280     -2.392169
  C       1.526483      0.280823     -1.391724
  C       2.736883     -0.065814     -2.064835
  S       0.894270     -0.301239     -3.832638
  C       2.545284     -0.397106     -3.369445
  H       1.528324      1.234896     -0.655821
  H       3.714468     -0.016053     -1.607821
  H       3.289643     -0.670464     -4.101858
  H      -0.718428     -3.212723     -0.244886
  H      -0.802289     -2.400696      2.349311
  H       1.657045     -1.531070      3.006434
  O       1.412884      2.433775      0.177789
  O       0.549626      0.959054      1.606939
  C       0.963345      2.133180      1.285762
  C       0.898997      3.154465      2.386293
  H       0.858515      4.160595      1.977896
  H       1.803402      3.077617      2.992874
  H       0.050423      2.983077      3.044827
  H       3.271877     -1.870245      0.898222
  H       1.781341     -2.886253     -1.134373
39
Coordinates from ORCA-job reaction-4-manual-optts E -1288.400595222160
  Ir      0.622267     -0.712687      0.429212
  C       0.102133     -2.816770      0.333535
  C       0.058548     -2.357292      1.696758
  C       2.216299     -2.096649      0.917016
  C       1.413372     -2.645454     -0.150550
  C       1.382666     -1.951577      2.046535
  N      -1.045266      0.147508     -0.521674
  C      -2.308614      0.429510      0.177435
  C      -3.094818      1.582615     -0.427428
  H      -3.916111      1.838228      0.240649
  H      -3.544064      1.330985     -1.389135
  H      -2.481591      2.476048     -0.547071
  C      -3.142232     -0.844834      0.249318
  H      -2.010480      0.708721      1.188876
  H      -4.042947     -0.662135      0.833553
  H      -3.449881     -1.172695     -0.744451
  H      -2.601559     -1.659425      0.728875
  C      -0.884134      0.392711     -1.766768
  C       0.449731      0.187349     -2.269454
  H      -1.685429      0.769706     -2.394982
  C       1.528524      0.284844     -1.390305
  C       2.739583     -0.063704     -2.061207
  S       0.898934     -0.302628     -3.830511
  C       2.549397     -0.398100     -3.365192
  H       1.529219      1.237555     -0.653739
  H       3.716691     -0.012869     -1.603285
  H       3.294488     -0.673353     -4.096159
  H      -0.731725     -3.209650     -0.230249
  H      -0.790084     -2.394491      2.363224
  H       1.677976     -1.529909      2.996851
  O       1.411320      2.434823      0.182869
  O       0.545850      0.957639      1.608166
  C       0.960758      2.132202      1.289718
  C       0.896015      3.150962      2.392540
  H       0.867504      4.158536      1.986805
  H       1.794174      3.064272      3.007035
  H       0.040358      2.984968      3.043339
  H       3.271658     -1.874483      0.873861
  H       1.760841     -2.891297     -1.143280
39
Coordinates from ORCA-job reaction-4-manual-optts E -1288.400593735233
  Ir      0.622567     -0.712269      0.429338
  C       0.103014     -2.816487      0.333497
  C       0.059063     -2.356742      1.696649
  C       2.216803     -2.095767      0.917348
  C       1.414242     -2.644905     -0.150304
  C       1.382965     -1.950841      2.046714
  N      -1.045526      0.146926     -0.521314
  C      -2.309078      0.428652      0.177594
  C      -3.093108      1.584351     -0.425086
  H      -3.914569      1.839664      0.242912
  H      -3.541968      1.335848     -1.387789
  H      -2.478279      2.477025     -0.542060
  C      -3.144186     -0.844935      0.245659
  H      -2.011389      0.704972      1.189945
  H      -4.044957     -0.662778      0.829980
  H      -3.451800     -1.169831     -0.749099
  H      -2.604630     -1.661462      0.723230
  C      -0.884660      0.390909     -1.766686
  C       0.449389      0.185567     -2.269276
  H      -1.686201      0.766818     -2.395259
  C       1.528486      0.285865     -1.390747
  C       2.739635     -0.063168     -2.061211
  S       0.898512     -0.307796     -3.829291
  C       2.549274     -0.400792     -3.364319
  H       1.527924      1.238372     -0.655187
  H       3.716807     -0.010518     -1.603631
  H       3.294321     -0.677189     -4.094898
  H      -0.730576     -3.209658     -0.230470
  H      -0.789812     -2.393746      2.362820
  H       1.677888     -1.528939      2.997044
  O       1.407529      2.436465      0.182243
  O       0.546500      0.957621      1.608545
  C       0.959599      2.132835      1.289791
  C       0.896335      3.150917      2.393352
  H       0.857957      4.158318      1.987901
  H       1.800140      3.070558      3.000400
  H       0.047061      2.979276      3.050953
  H       3.272124     -1.873361      0.874416
  H       1.761976     -2.890595     -1.142973
39
Coordinates from ORCA-job reaction-4-manual-optts E -1288.400594588716
  Ir      0.622971     -0.712494      0.429283
  C       0.103942     -2.816783      0.331992
  C       0.058374     -2.357560      1.695306
  C       2.216945     -2.095853      0.918587
  C       1.415715     -2.644801     -0.150133
  C       1.381740     -1.951558      2.047051
  N      -1.045169      0.147113     -0.520905
  C      -2.308462      0.429055      0.178359
  C      -3.092402      1.584995     -0.424009
  H      -3.913668      1.840383      0.244195
  H      -3.541496      1.336632     -1.386635
  H      -2.477454      2.477579     -0.541056
  C      -3.143824     -0.844369      0.246378
  H      -2.010496      0.705187      1.190678
  H      -4.044248     -0.662286      0.831255
  H      -3.452018     -1.168765     -0.748365
  H      -2.604158     -1.661217      0.723269
  C      -0.884539      0.391200     -1.766285
  C       0.449327      0.185528     -2.269226
  H      -1.686118      0.767382     -2.394645
  C       1.528744      0.285530     -1.391068
  C       2.739589     -0.063869     -2.061880
  S       0.897836     -0.307961     -3.829383
  C       2.548713     -0.401465     -3.364920
  H       1.528687      1.237835     -0.655365
  H       3.716914     -0.011521     -1.604596
  H       3.293446     -0.678102     -4.095730
  H      -0.728889     -3.209978     -0.233073
  H      -0.791226     -2.395008      2.360527
  H       1.675463     -1.529965      2.997890
  O       1.408034      2.436151      0.182158
  O       0.546859      0.957397      1.608465
  C       0.959476      2.132732      1.289486
  C       0.894685      3.151320      2.392501
  H       0.854519      4.158400      1.986424
  H       1.798791      3.072980      2.999369
  H       0.045841      2.978610      3.050363
  H       3.272297     -1.873349      0.877002
  H       1.764626     -2.889925     -1.142534
