! EnGrad PBEh-3c
%output 
xyzfile=True 
end 
%scf 
maxiter 250 
end
%output
Print[P_Hirshfeld] = 1
end
% maxcore
4000
*xyz 0 1
C   -1.38176776   0.15252959  -0.78494422 
C   -2.23026920  -0.87600072  -1.17373019 
C   -2.00795118  -2.17244217  -0.74494623 
C   -0.94390913  -2.45847404   0.09320451 
C   -0.35429082  -0.17779788   0.07486757 
C   -0.11791584  -1.44720889   0.55776516 
H   -1.58589734   1.12716890  -1.21370017 
H   -3.05718088  -0.66594756  -1.84107766 
H   -2.67175316  -2.96687616  -1.06823012 
H    0.69836856  -1.72149748   1.21536553 
H   -0.77031605  -3.47759043   0.41652796 
Pd   1.48070208   1.06691343  -0.21087835 
O    3.49761057   1.47027156  -0.88932479 
O    2.72410648  -0.53686023  -0.56025897 
O    0.31882062   2.72844050   0.18101602 
C   -0.15019385   2.82538267   1.30165491 
O    0.19993165   2.01832413   2.24846661 
H   -1.04286253   1.47881859   2.96472938 
C    3.66014134   0.23695202  -0.89540670 
H    4.60914685  -0.21729663  -1.21228305 
H   -0.87451291   3.61318080   1.54119780 
*
