! EnGrad PBEh-3c
%output 
xyzfile=True 
end 
%scf 
maxiter 250 
end
%output
Print[P_Hirshfeld] = 1
end
% maxcore
4000
*xyz 0 1
C   -1.40661569   0.15097099  -0.69571035 
C   -2.17893621  -0.89920719  -1.18891075 
C   -1.88645898  -2.19650052  -0.84842504 
C   -0.92559804  -2.45225230   0.10426628 
C   -0.27563851  -0.12226734   0.09902824 
C   -0.15205494  -1.42389422   0.62215134 
H   -1.62936463   1.18254462  -0.97998154 
H   -2.90800733  -0.67041130  -1.92523608 
H   -2.36989221  -3.01484558  -1.34940957 
H    0.61993043  -1.60858208   1.37263884 
H   -0.65096849  -3.44081094   0.38009877 
Pd   1.33906965   0.96379626  -0.10581491 
O    3.34077205   1.38515980  -1.03859752 
O    2.61426905  -0.58510187  -0.43085816 
O    0.36931530   2.73526473   0.27991313 
C   -0.19260877   2.83762911   1.36922424 
O    0.00211428   1.92958451   2.31605192 
H   -0.78990782   1.63443126   2.68074231 
C    3.50192490   0.16027101  -0.93943802 
H    4.41012308  -0.32423838  -1.30587396 
H   -0.86515055   3.74768692   1.58945974 
*
