! EnGrad PBEh-3c
%output 
xyzfile=True 
end 
%scf 
maxiter 250 
end
%output
Print[P_Hirshfeld] = 1
end
% maxcore
4000
*xyz 0 1
C   -1.40059893   0.16361623  -0.65356618 
C   -2.14253457  -0.89091957  -1.20233530 
C   -1.82824194  -2.20492335  -0.89101552 
C   -0.88474657  -2.44761451   0.09852991 
C   -0.30010146  -0.10930413   0.15773044 
C   -0.15735738  -1.39639691   0.65617398 
H   -1.66377854   1.19047201  -0.91217296 
H   -2.87640034  -0.66375756  -1.97060292 
H   -2.24451572  -3.01461147  -1.44895565 
H    0.58618308  -1.59609883   1.42890803 
H   -0.60695554  -3.46155480   0.37664338 
Pd   1.32280815   0.95808949  -0.08812991 
O    3.26224900   1.34601699  -1.07934047 
O    2.57405334  -0.60744196  -0.38639682 
O    0.34381993   2.77417339   0.26966803 
C   -0.16182202   2.87464046   1.36405513 
O    0.00294454   1.97618010   2.31890356 
H   -0.82664150   1.59687540   2.66782195 
C    3.43527232   0.12038131  -0.95903861 
H    4.33987058  -0.37277197  -1.34212418 
H   -0.82072304   3.74452429   1.59734904 
*
