! EnGrad PBEh-3c
%output 
xyzfile=True 
end 
%scf 
maxiter 250 
end
%output
Print[P_Hirshfeld] = 1
end
% maxcore
4000
*xyz 0 1
C   -1.40264040   0.16825220  -0.63737027 
C   -2.12762084  -0.87929222  -1.20690893 
C   -1.80017608  -2.19917559  -0.90220912 
C   -0.86522679  -2.44325953   0.10477908 
C   -0.30812951  -0.10592792   0.17537842 
C   -0.15904121  -1.39104458   0.67049924 
H   -1.67495556   1.18557068  -0.89124563 
H   -2.86381569  -0.66428830  -1.98249078 
H   -2.21126858  -3.02261402  -1.48461231 
H    0.56863622  -1.59295850   1.44202454 
H   -0.59424799  -3.46381507   0.37006439 
Pd   1.30058552   0.95644116  -0.08185382 
O    3.24313857   1.33400173  -1.09374427 
O    2.56194235  -0.61654489  -0.37110536 
O    0.33827898   2.77853137   0.28919077 
C   -0.17863006   2.88480543   1.36696924 
O    0.00570193   1.99687422   2.31434814 
H   -0.82310039   1.58788742   2.64326923 
C    3.41581850   0.10752468  -0.96539895 
H    4.31885868  -0.38759816  -1.35451249 
H   -0.79375325   3.74204578   1.59407185 
*
