! EnGrad PBEh-3c
%output 
xyzfile=True 
end 
%scf 
maxiter 250 
end
%output
Print[P_Hirshfeld] = 1
end
% maxcore
4000
*xyz 0 1
C   -1.40783214   0.17048904  -0.62680525 
C   -2.11369890  -0.87379697  -1.21205883 
C   -1.77611560  -2.19368808  -0.91230656 
C   -0.85126211  -2.44074657   0.10450367 
C   -0.32052926  -0.10316255   0.19453464 
C   -0.16106930  -1.39177674   0.68246141 
H   -1.68329537   1.18129568  -0.88268809 
H   -2.85473688  -0.66473212  -1.98662733 
H   -2.18729839  -3.02082431  -1.50241509 
H    0.55897410  -1.59587491   1.45072806 
H   -0.58729670  -3.46459641   0.36475149 
Pd   1.28433272   0.96400416  -0.08002937 
O    3.23150602   1.32223569  -1.10090277 
O    2.55500462  -0.62282326  -0.36449996 
O    0.33661373   2.77960036   0.29074012 
C   -0.19287794   2.88831210   1.37206497 
O    0.00292234   2.01102220   2.32079487 
H   -0.81412030   1.57741503   2.62222480 
C    3.40206233   0.09733687  -0.96714174 
H    4.30474708  -0.39751431  -1.36364292 
H   -0.77641817   3.74835128   1.59154535 
*
