! EnGrad PBEh-3c
%output 
xyzfile=True 
end 
%scf 
maxiter 250 
end
%output
Print[P_Hirshfeld] = 1
end
% maxcore
4000
*xyz 0 1
C   -1.41514337   0.17180339  -0.61374153 
C   -2.09785870  -0.87560990  -1.22143790 
C   -1.74630849  -2.18848596  -0.92808309 
C   -0.83835499  -2.44228433   0.09735558 
C   -0.33487846  -0.09539030   0.22264993 
C   -0.16538848  -1.39218044   0.69662378 
H   -1.69341789   1.18031412  -0.87466303 
H   -2.84170162  -0.66490481  -1.98914417 
H   -2.15305336  -3.01130696  -1.51985479 
H    0.55307966  -1.60172711   1.46553915 
H   -0.57894868  -3.46480585   0.35882647 
Pd   1.26692103   0.97324669  -0.07797986 
O    3.21567471   1.30750443  -1.10852449 
O    2.54223326  -0.63085690  -0.35691206 
O    0.32979483   2.78281161   0.29077224 
C   -0.19416094   2.88481192   1.36678463 
O   -0.00366439   2.02750014   2.33671615 
H   -0.80337556   1.55977844   2.59773982 
C    3.38701797   0.08309568  -0.96953623 
H    4.28514190  -0.40994719  -1.37533348 
H   -0.76489709   3.76982765   1.59185079 
*
