! EnGrad PBEh-3c
%output 
xyzfile=True 
end 
%scf 
maxiter 250 
end
%output
Print[P_Hirshfeld] = 1
end
% maxcore
4000
*xyz 0 1
C   -1.40982765   0.17084778  -0.62323967 
C   -2.10937551  -0.87429179  -1.21461873 
C   -1.76798012  -2.19226822  -0.91661257 
C   -0.84773927  -2.44116629   0.10255269 
C   -0.32444570  -0.10104121   0.20220836 
C   -0.16224817  -1.39188693   0.68632686 
H   -1.68605819   1.18102778  -0.88049775 
H   -2.85117906  -0.66477926  -1.98731427 
H   -2.17795163  -3.01822667  -1.50717504 
H    0.55736528  -1.59747220   1.45477057 
H   -0.58501821  -3.46465357   0.36313433 
Pd   1.27958041   0.96652680  -0.07946998 
O    3.22718506   1.31821497  -1.10298303 
O    2.55151883  -0.62501594  -0.36242894 
O    0.33475259   2.78047684   0.29074889 
C   -0.19322812   2.88735677   1.37062377 
O    0.00112458   2.01551965   2.32514039 
H   -0.81118765   1.57260134   2.61554193 
C    3.39795616   0.09344991  -0.96779529 
H    4.29939609  -0.40090771  -1.36683371 
H   -0.77327363   3.75421299   1.59162871 
*
