! EnGrad PBEh-3c
%output 
xyzfile=True 
end 
%scf 
maxiter 250 
end
%output
Print[P_Hirshfeld] = 1
end
% maxcore
4000
*xyz 0 1
C   -1.39945541   0.14123856  -0.77471958 
C   -2.23022778  -0.87763026  -1.18017484 
C   -1.99868258  -2.17757488  -0.75853260 
C   -0.94177680  -2.46323215   0.09974428 
C   -0.30788031  -0.12810935   0.08420980 
C   -0.13239352  -1.45370110   0.56377890 
H   -1.59020298   1.13222768  -1.19341623 
H   -3.04581517  -0.66867617  -1.85202591 
H   -2.64737612  -2.96938217  -1.08978003 
H    0.68960096  -1.71119486   1.23047559 
H   -0.75879220  -3.47804010   0.40834412 
Pd   1.43611486   1.03394855  -0.19443710 
O    3.49448330   1.46821888  -0.90583445 
O    2.71266360  -0.53408486  -0.54392394 
O    0.32474866   2.74190550   0.18221666 
C   -0.15210257   2.83182033   1.29567463 
O    0.13126326   1.97955597   2.30415890 
H   -0.96898765   1.50981155   2.91022664 
C    3.65327338   0.22830309  -0.90548823 
H    4.59878474  -0.22581158  -1.22104315 
H   -0.86782305   3.62011147   1.54027892 
*
