! EnGrad PBEh-3c
%output 
xyzfile=True 
end 
%scf 
maxiter 250 
end
%output
Print[P_Hirshfeld] = 1
end
% maxcore
4000
*xyz 0 1
C   -1.38197839   0.15579657  -0.71156086 
C   -2.21346580  -0.89308082  -1.17984380 
C   -1.95848613  -2.19383270  -0.79873959 
C   -0.94726932  -2.44946606   0.11002502 
C   -0.25683221  -0.09770422   0.08275302 
C   -0.13883089  -1.39498307   0.58396968 
H   -1.60879957   1.13629832  -1.11753507 
H   -3.01203131  -0.67586681  -1.89610466 
H   -2.56741772  -2.99482257  -1.17871684 
H    0.64890474  -1.67620861   1.27686152 
H   -0.71715813  -3.48631930   0.38618872 
Pd   1.32872230   0.95491625  -0.15049481 
O    3.46889536   1.44434612  -0.96291194 
O    2.67785537  -0.54032796  -0.49177603 
O    0.34488396   2.75420113   0.25948695 
C   -0.19416139   2.78498868   1.35584582 
O   -0.01244733   1.95734560   2.32729029 
H   -0.78863458   1.60245982   2.74535334 
C    3.60406899   0.21680979  -0.92519679 
H    4.55586159  -0.26054736  -1.25461721 
H   -0.83789618   3.65426883   1.53960539 
*
