! EnGrad PBEh-3c
%output 
xyzfile=True 
end 
%scf 
maxiter 250 
end
%output
Print[P_Hirshfeld] = 1
end
% maxcore
4000
*xyz 0 1
C   -1.38549746   0.15691113  -0.70150102 
C   -2.18382076  -0.86914927  -1.16705307 
C   -1.92892150  -2.19582843  -0.81702509 
C   -0.92745458  -2.42471524   0.12686643 
C   -0.29227357  -0.15090837   0.06793994 
C   -0.13865531  -1.40150714   0.59807393 
H   -1.61519001   1.14374190  -1.05833295 
H   -2.97012028  -0.67831029  -1.90911828 
H   -2.50611009  -3.02277228  -1.25402417 
H    0.62408844  -1.64353198   1.30499018 
H   -0.69175606  -3.46247729   0.37701969 
Pd   1.32858254   0.96609461  -0.13254244 
O    3.42664882   1.42811020  -0.99865683 
O    2.65700140  -0.56176752  -0.46600144 
O    0.36003567   2.71416052   0.34488013 
C   -0.25114322   2.82415969   1.35792350 
O    0.04623390   1.95566180   2.27197039 
H   -0.80050944   1.62497863   2.70529848 
C    3.56408195   0.19575423  -0.92645817 
H    4.49947463  -0.28337141  -1.27504558 
H   -0.82992380   3.68055269   1.55294363 
*
