! EnGrad PBEh-3c
%output 
xyzfile=True 
end 
%scf 
maxiter 250 
end
%output
Print[P_Hirshfeld] = 1
end
% maxcore
4000
*xyz 0 1
C   -1.39502642   0.15518750  -0.70443385 
C   -2.18584053  -0.87460368  -1.17280917 
C   -1.91914635  -2.19214354  -0.82116183 
C   -0.92755310  -2.43389729   0.12421208 
C   -0.28585952  -0.14418545   0.07134452 
C   -0.14153919  -1.41362347   0.60419495 
H   -1.61643713   1.15135543  -1.04140474 
H   -2.95337739  -0.67741005  -1.90860899 
H   -2.48077183  -3.02390879  -1.27418240 
H    0.62298383  -1.63439855   1.31761710 
H   -0.68427945  -3.45142687   0.37633926 
Pd   1.33009082   0.96704350  -0.12630622 
O    3.41021018   1.42029063  -1.00733859 
O    2.64873376  -0.56712109  -0.45920090 
O    0.36722277   2.71377132   0.33158383 
C   -0.24406670   2.82412482   1.36290646 
O    0.04074799   1.94630361   2.28060585 
H   -0.79658786   1.63000788   2.69705907 
C    3.55376718   0.18854544  -0.92871342 
H    4.47999313  -0.29044435  -1.28060120 
H   -0.84201023   3.70124272   1.56185958 
*
