! EnGrad PBEh-3c
%output 
xyzfile=True 
end 
%scf 
maxiter 250 
end
%output
Print[P_Hirshfeld] = 1
end
% maxcore
4000
*xyz 0 1
C   -1.40275784   0.15218234  -0.70728372 
C   -2.18955851  -0.88607958  -1.18147598 
C   -1.91081966  -2.19076077  -0.82678944 
C   -0.92954870  -2.44689622   0.11555591 
C   -0.27889055  -0.13268591   0.08080413 
C   -0.14590611  -1.42379546   0.60882271 
H   -1.61866701   1.16313287  -1.02557791 
H   -2.93760134  -0.67478701  -1.90865042 
H   -2.44823597  -3.01818690  -1.29277280 
H    0.62651296  -1.62725332   1.33412432 
H   -0.67620539  -3.44379910   0.37866707 
Pd   1.33833405   0.96928338  -0.12122765 
O    3.38907296   1.40951650  -1.01411554 
O    2.63948743  -0.57205762  -0.45342010 
O    0.36581578   2.72245613   0.30694032 
C   -0.21532900   2.82459081   1.35695101 
O    0.02272271   1.93495333   2.30166611 
H   -0.79336244   1.63044106   2.69649074 
C    3.54056930   0.18027637  -0.93123066 
H    4.45890396  -0.29897082  -1.28652074 
H   -0.85788572   3.72155905   1.57291636 
*
