! EnGrad PBEh-3c
%output 
xyzfile=True 
end 
%scf 
maxiter 250 
end
%output
Print[P_Hirshfeld] = 1
end
% maxcore
4000
*xyz 0 1
Lu   0.28842576   0.23979585  -0.15099360 
C    0.40775127   0.99584020   2.45026435 
C    1.39383652   0.00037102   2.23654896 
C    2.30540365   0.45311876   1.26043216 
C    1.94202156   1.78568414   0.96545507 
C    0.70991238   2.07238505   1.59843964 
H    2.49408033   2.45151162   0.31849649 
H    0.20114122   3.02438506   1.59959532 
H   -0.39613430   0.96789782   3.17117862 
H    1.46378602  -0.94766123   2.75133701 
H    3.19330026  -0.06317588   0.92949564 
C    1.01624170  -0.07058461  -2.57487624 
C   -0.29807736  -0.58421710  -2.54424559 
C    1.05131231  -1.95974291  -1.32740791 
C    1.83606457  -0.86810668  -1.75068706 
H    1.33134268   0.81309547  -3.11000374 
C   -0.23083449  -1.84006555  -1.92039503 
H   -1.12903200  -0.24691266  -3.14437639 
H    2.89055975  -0.73738859  -1.56157301 
H    1.40668434  -2.78763566  -0.72894832 
H   -1.05394023  -2.54097633  -1.87894869 
C   -2.67631917  -1.61579348   1.39153685 
H   -2.63213677  -1.41416488   2.45778741 
H   -3.07274721  -2.57890096   1.14038036 
H   -2.85318116  -0.76358596   0.76336974 
C   -1.93451654   1.75287174  -0.71129776 
H   -1.06090639  -1.58343259   1.01900094 
H   -1.45155343   2.53230244  -1.31032709 
H   -2.52345990   2.28900784   0.03653048 
H   -2.61903538   1.22408142  -1.37576865 
*
