! EnGrad PBEh-3c
%output 
xyzfile=True 
end 
%scf 
maxiter 250 
end
%output
Print[P_Hirshfeld] = 1
end
% maxcore
4000
*xyz 0 1
Lu   0.11405463   0.36763691  -0.20424374 
C    0.40955990   0.95292331   2.42117220 
C    1.37381631  -0.04137054   2.16110015 
C    2.30864076   0.47701581   1.24797609 
C    1.92486276   1.80266707   0.94552957 
C    0.73711479   2.08654832   1.65972173 
H    2.47899792   2.49345961   0.32582541 
H    0.19554545   3.02303696   1.65844663 
H   -0.37454515   0.89107248   3.16530690 
H    1.43576126  -1.00665228   2.64893930 
H    3.20526889  -0.02129762   0.91470053 
C    1.00505257  -0.05232292  -2.58191392 
C   -0.28155965  -0.63642267  -2.60654486 
C    1.05851109  -1.92564165  -1.28421837 
C    1.83151558  -0.84593512  -1.75147262 
H    1.31855140   0.81937899  -3.13532085 
C   -0.23294292  -1.81244061  -1.83748649 
H   -1.13102699  -0.28385327  -3.17269192 
H    2.88333829  -0.70552509  -1.57231516 
H    1.41900604  -2.75652756  -0.69524835 
H   -1.01198902  -2.55925868  -1.76157203 
C   -2.53467369  -1.54246608   1.35677609 
H   -2.56493157  -1.36986161   2.43467248 
H   -2.85938646  -2.55263211   1.10433854 
H   -3.14827103  -0.80108272   0.83283556 
C   -1.79313902   1.69890799  -0.72783969 
H   -1.48210368  -1.50700170   1.04665846 
H   -1.43749746   2.54192300  -1.34605177 
H   -2.37146908   2.15963214   0.08786180 
H   -2.52302421   1.17501953  -1.36380618 
*
