! EnGrad PBEh-3c
%output 
xyzfile=True 
end 
%scf 
maxiter 250 
end
%output
Print[P_Hirshfeld] = 1
end
% maxcore
4000
*xyz 0 1
Lu   0.07225093   0.38236670  -0.20445630 
C    0.42868306   0.96781904   2.45356422 
C    1.38899422  -0.04191780   2.21065428 
C    2.33494474   0.49236527   1.31675267 
C    1.91739886   1.78625390   0.92328646 
C    0.76846606   2.09820933   1.67660046 
H    2.48589094   2.48021606   0.32661342 
H    0.17492949   3.00534108   1.61430812 
H   -0.36238531   0.93558629   3.17698959 
H    1.45225912  -0.98681762   2.71620559 
H    3.19644335  -0.03973616   0.92269613 
C    1.00592384  -0.03479755  -2.54706881 
C   -0.25210476  -0.66225595  -2.64730382 
C    1.06284780  -1.97413882  -1.32718896 
C    1.83452035  -0.88761900  -1.78562101 
H    1.32075171   0.81840690  -3.13283479 
C   -0.23941366  -1.82858220  -1.84725060 
H   -1.14410439  -0.25896326  -3.12516183 
H    2.88711116  -0.72231028  -1.57165535 
H    1.41114255  -2.78713885  -0.70542175 
H   -1.01730944  -2.56570043  -1.84788241 
C   -2.31683397  -1.57709972   1.33054879 
H   -2.62139678  -1.39986417   2.44696105 
H   -2.98605412  -2.57560690   1.13102732 
H   -2.98975692  -0.77146342   0.76700537 
C   -1.81110740   1.69001331  -0.69491381 
H   -1.49699411  -1.54575230   1.08815080 
H   -1.44564110   2.54115734  -1.32948842 
H   -2.48454823   2.25120690   0.03522039 
H   -2.59062716   1.22651426  -1.37390373 
*
