! EnGrad PBEh-3c
%output 
xyzfile=True 
end 
%scf 
maxiter 250 
end
%output
Print[P_Hirshfeld] = 1
end
% maxcore
4000
*xyz 0 1
Lu   0.13340030   0.34114632  -0.18915639 
C    0.43107492   0.97078918   2.44909906 
C    1.38525591  -0.02984016   2.22203001 
C    2.32617820   0.48378794   1.30260575 
C    1.92380406   1.78689298   0.93351221 
C    0.75265031   2.09282202   1.65421589 
H    2.48737369   2.47119930   0.32525450 
H    0.18226758   3.01035035   1.60969476 
H   -0.37465861   0.94511112   3.17780139 
H    1.45577705  -0.97415592   2.72554499 
H    3.19698591  -0.04742018   0.92389236 
C    1.01140592  -0.04107017  -2.55480052 
C   -0.26673662  -0.64163994  -2.61967275 
C    1.05443677  -1.97606435  -1.32658285 
C    1.83522963  -0.87992388  -1.77863524 
H    1.32286925   0.81472344  -3.12516773 
C   -0.23110662  -1.83039822  -1.86559412 
H   -1.13979526  -0.25521929  -3.12996370 
H    2.88880981  -0.72651693  -1.56862804 
H    1.40951224  -2.78583103  -0.71305104 
H   -1.02904260  -2.55979428  -1.85735913 
C   -2.41736014  -1.58012314   1.35698743 
H   -2.62610214  -1.40486789   2.45051583 
H   -3.01838764  -2.58814675   1.13132477 
H   -2.95135423  -0.76587749   0.76180199 
C   -1.84172041   1.70716365  -0.70023669 
H   -1.36328932  -1.55562527   1.06509247 
H   -1.44714433   2.53920337  -1.32419041 
H   -2.49947742   2.26523840   0.03793859 
H   -2.60187510   1.22502523  -1.37665156 
*
