! EnGrad PBEh-3c
%output 
xyzfile=True 
end 
%scf 
maxiter 250 
end
%output
Print[P_Hirshfeld] = 1
end
% maxcore
4000
*xyz 0 1
Lu   0.07776250   0.38235556  -0.20354263 
C    0.42055727   0.97614329   2.44860598 
C    1.39398163  -0.03468081   2.20200908 
C    2.33312722   0.48335405   1.30203894 
C    1.92275806   1.78473594   0.93222902 
C    0.75698572   2.09467827   1.67658106 
H    2.48788311   2.48257815   0.32379393 
H    0.17958764   3.00534367   1.61784248 
H   -0.36355783   0.93236003   3.17608755 
H    1.45123715  -0.99175973   2.71430569 
H    3.19404699  -0.03649331   0.92523287 
C    1.00443139  -0.04390760  -2.55581794 
C   -0.26248004  -0.65642225  -2.63746251 
C    1.07031077  -1.96204843  -1.32382512 
C    1.83767325  -0.88584785  -1.77391380 
H    1.32238259   0.82114974  -3.13314075 
C   -0.24174945  -1.82172598  -1.85646815 
H   -1.13828001  -0.26228742  -3.12897446 
H    2.88363843  -0.72295984  -1.57225490 
H    1.41206618  -2.78675714  -0.70500260 
H   -1.01923046  -2.56717751  -1.84057452 
C   -2.50995675  -1.58328757   1.35668328 
H   -2.59780371  -1.40012005   2.41290373 
H   -2.93582825  -2.52609891   1.13387228 
H   -2.97471958  -0.80358936   0.79558999 
C   -1.83556564   1.70322102  -0.70083185 
H   -1.40748591  -1.55169700   1.06748462 
H   -1.44732853   2.53265535  -1.32533352 
H   -2.46088925   2.23111693   0.02834574 
H   -2.57128001   1.22687855  -1.36193995 
*
