! EnGrad PBEh-3c
%output 
xyzfile=True 
end 
%scf 
maxiter 250 
end
%output
Print[P_Hirshfeld] = 1
end
% maxcore
4000
*xyz 0 1
Lu   0.06549404   0.39230073  -0.20721377 
C    0.42492278   0.97197799   2.44449873 
C    1.39105630  -0.03667833   2.20031075 
C    2.33220487   0.48539177   1.30006759 
C    1.92279030   1.78655490   0.93208169 
C    0.75832913   2.09643705   1.68021102 
H    2.48695967   2.48483784   0.32472428 
H    0.17939065   3.00454210   1.62120656 
H   -0.36364720   0.92802864   3.17848292 
H    1.44980308  -0.99455434   2.70819489 
H    3.19588364  -0.03458643   0.92442951 
C    1.00562109  -0.04269986  -2.55813629 
C   -0.26353215  -0.65961895  -2.64087281 
C    1.06847075  -1.96297981  -1.32058762 
C    1.83762470  -0.88236463  -1.77451851 
H    1.32133013   0.82042611  -3.13406200 
C   -0.23827141  -1.81924480  -1.85230078 
H   -1.13787821  -0.26466598  -3.13027116 
H    2.88357790  -0.72160669  -1.57290223 
H    1.41257368  -2.78449531  -0.70372788 
H   -1.01733804  -2.57015816  -1.83449891 
C   -2.51285236  -1.57466927   1.35862630 
H   -2.59190658  -1.39759422   2.40894043 
H   -2.92082735  -2.52495036   1.13036840 
H   -2.99147998  -0.80735962   0.80077212 
C   -1.82947098   1.70245364  -0.70341565 
H   -1.42673807  -1.54935155   1.06820141 
H   -1.44720877   2.53060760  -1.32568262 
H   -2.45107670   2.22234272   0.02994395 
H   -2.56392338   1.22477311  -1.35967173 
*
