! EnGrad PBEh-3c
%output 
xyzfile=True 
end 
%scf 
maxiter 250 
end
%output
Print[P_Hirshfeld] = 1
end
% maxcore
4000
*xyz 0 1
Lu   0.04850693   0.41071570  -0.21463956 
C    0.42197023   0.95898657   2.44163926 
C    1.38692829  -0.04270187   2.18899258 
C    2.32367093   0.48600527   1.28516000 
C    1.92348257   1.79670216   0.93727729 
C    0.76163259   2.09809741   1.67914742 
H    2.48362704   2.49076207   0.32762429 
H    0.18064294   3.00668074   1.63569293 
H   -0.36018488   0.91254417   3.17885993 
H    1.44404164  -1.00154398   2.68469994 
H    3.20282023  -0.02836258   0.92153274 
C    1.00569438  -0.04716675  -2.56938833 
C   -0.26283170  -0.65793211  -2.63831011 
C    1.06535632  -1.95233096  -1.30966314 
C    1.83155877  -0.86973336  -1.77068796 
H    1.31915540   0.81903883  -3.13677685 
C   -0.23512567  -1.82176793  -1.84296833 
H   -1.13822624  -0.27306096  -3.14184531 
H    2.88581775  -0.71634371  -1.57402657 
H    1.41490726  -2.77670497  -0.69895934 
H   -1.00796042  -2.57264575  -1.80953738 
C   -2.51007489  -1.54893955   1.35885443 
H   -2.57468326  -1.38412648   2.41880381 
H   -2.88019475  -2.53974342   1.11368246 
H   -3.06493898  -0.80399112   0.81056778 
C   -1.81099316   1.70265479  -0.71540998 
H   -1.47958998  -1.53867174   1.06718766 
H   -1.44472457   2.52700260  -1.32951581 
H   -2.41791783   2.19364426   0.04546198 
H   -2.54159235   1.21048699  -1.35644664 
*
