! EnGrad PBEh-3c
%output 
xyzfile=True 
end 
%scf 
maxiter 250 
end
%output
Print[P_Hirshfeld] = 1
end
% maxcore
4000
*xyz 0 1
Lu   0.06672308   0.40039348  -0.21165397 
C    0.42762863   0.95789268   2.43000924 
C    1.38105797  -0.04063781   2.18639780 
C    2.31844650   0.48386596   1.27275815 
C    1.92663151   1.79835341   0.94155412 
C    0.75164885   2.09362897   1.67586229 
H    2.48268895   2.49125466   0.32768187 
H    0.18472172   3.01033693   1.64142184 
H   -0.36693854   0.90741428   3.18109444 
H    1.44257469  -1.00188847   2.67575663 
H    3.20471861  -0.02710405   0.92026260 
C    1.00887661  -0.04814011  -2.57606999 
C   -0.27368473  -0.65331792  -2.62779981 
C    1.05976476  -1.95126488  -1.30124489 
C    1.83470602  -0.85985656  -1.76556965 
H    1.31866528   0.81730309  -3.13549941 
C   -0.22793242  -1.81654710  -1.84488555 
H   -1.13522375  -0.27631066  -3.14931942 
H    2.88423898  -0.71475377  -1.57392685 
H    1.41549814  -2.77025993  -0.69980598 
H   -1.01050390  -2.57283430  -1.79885899 
C   -2.51302474  -1.54562365   1.35623172 
H   -2.57221193  -1.37874812   2.43037349 
H   -2.87629453  -2.54903934   1.10878728 
H   -3.09084279  -0.79860838   0.81328388 
C   -1.80921396   1.70355697  -0.71923363 
H   -1.47758779  -1.53264622   1.06195070 
H   -1.44229232   2.53066364  -1.33382259 
H   -2.40799914   2.18618587   0.05696209 
H   -2.53766563   1.20096704  -1.35901871 
*
