! EnGrad PBEh-3c
%output 
xyzfile=True 
end 
%scf 
maxiter 250 
end
%output
Print[P_Hirshfeld] = 1
end
% maxcore
4000
*xyz 0 1
Lu   0.08391819   0.39104900  -0.20969885 
C    0.41950026   0.95567557   2.42680143 
C    1.37961337  -0.04188684   2.17535244 
C    2.31261021   0.48050759   1.25860760 
C    1.92770511   1.80076499   0.94616182 
C    0.74437521   2.09125196   1.66929551 
H    2.48132939   2.49350011   0.32725628 
H    0.18932522   3.01489632   1.65057989 
H   -0.36877934   0.89886705   3.17659275 
H    1.43925740  -1.00454981   2.66209387 
H    3.20630724  -0.02378621   0.91832308 
C    1.00832402  -0.05329568  -2.58102886 
C   -0.27856504  -0.64553949  -2.61725811 
C    1.05969887  -1.93907198  -1.29279187 
C    1.83174992  -0.85176021  -1.75865593 
H    1.31861090   0.81828955  -3.13631311 
C   -0.22894834  -1.81610737  -1.84327847 
H   -1.13352261  -0.28095989  -3.16029766 
H    2.88450061  -0.71099248  -1.57360553 
H    1.41712457  -2.76412209  -0.69778628 
H   -1.00926734  -2.56927006  -1.78141778 
C   -2.52976742  -1.54201467   1.35619027 
H   -2.56573420  -1.37201278   2.43640599 
H   -2.86128497  -2.55183582   1.10366855 
H   -3.12641639  -0.79777985   0.82193047 
C   -1.80270947   1.70233022  -0.72394832 
H   -1.48033565  -1.52261920   1.05453739 
H   -1.43911907   2.53552679  -1.34019149 
H   -2.38956408   2.17197036   0.07188403 
H   -2.52896753   1.18818094  -1.36104670 
*
