30
autodE path point 0. E = -1702.395119200827 charge = 0 mult = 1 
Lu    0.13111  -0.50802   0.36757
C     0.61193   0.31185   2.74454
C     1.81608  -0.27162   2.29224
C     2.32957   0.53465   1.25633
C     1.43818   1.60555   1.05464
C     0.37678   1.46758   1.97669
H     1.56434   2.40515   0.33816
H    -0.46641   2.13543   2.08091
H    -0.02377  -0.06565   3.53094
H     2.28605  -1.15754   2.69658
H     3.24896   0.36501   0.71638
C     0.51614  -0.19466  -2.17519
C    -0.59535  -1.05764  -2.05819
C     1.24028  -2.16116  -1.27792
C     1.65142  -0.88215  -1.70424
H     0.50712   0.80019  -2.59746
C    -0.14981  -2.27091  -1.50672
H    -1.61099  -0.83070  -2.34714
H     2.66113  -0.50063  -1.69114
H     1.88617  -2.94079  -0.89899
H    -0.76610  -3.13206  -1.29644
C    -1.99763  -1.15350   1.05346
H    -2.37406  -0.74151   1.99465
H    -2.05364  -2.24652   1.15834
H    -2.75313  -0.91636   0.29263
C    -1.89263   2.28084  -1.20132
H    -2.01089   1.49015  -0.46162
H    -0.86844   2.64667  -1.19905
H    -2.56572   3.09649  -0.95251
H    -2.13670   1.89189  -2.18615
30
autodE path point 1. E = -1702.392779759725 charge = 0 mult = 1 
Lu    0.07800  -0.42138   0.32052
C     0.55229   0.46823   2.69520
C     1.69569  -0.25569   2.28926
C     2.32702   0.46863   1.25810
C     1.56433   1.62251   1.00312
C     0.47075   1.62541   1.89809
H     1.80595   2.39392   0.28541
H    -0.27361   2.40572   1.98328
H    -0.13567   0.18480   3.47670
H     2.05345  -1.17782   2.72559
H     3.25134   0.19867   0.76866
C     0.63017  -0.15266  -2.23191
C    -0.53073  -0.95619  -2.17313
C     1.18777  -2.13077  -1.24535
C     1.69215  -0.88675  -1.67568
H     0.70954   0.82471  -2.68776
C    -0.18732  -2.17711  -1.56859
H    -1.50620  -0.69022  -2.55401
H     2.72294  -0.56784  -1.62498
H     1.76893  -2.93386  -0.81496
H    -0.85727  -3.00334  -1.38500
C    -1.97070  -1.29825   1.09576
H    -2.34176  -0.92530   2.05789
H    -1.94607  -2.39572   1.19491
H    -2.77691  -1.10748   0.37032
C    -1.99370   2.19642  -1.08466
H    -2.14216   1.39512  -0.29900
H    -0.93255   2.45864  -1.07679
H    -2.62268   3.03902  -0.78396
H    -2.30602   1.78112  -2.04691
30
autodE path point 2. E = -1702.387252948683 charge = 0 mult = 1 
Lu    0.01380  -0.34214   0.26451
C     0.49495   0.62840   2.61839
C     1.57172  -0.21742   2.26907
C     2.31427   0.42061   1.25430
C     1.68277   1.63907   0.94909
C     0.56304   1.77201   1.80086
H     2.04473   2.37657   0.24533
H    -0.09289   2.63235   1.84821
H    -0.23657   0.43845   3.38922
H     1.81183  -1.16534   2.72973
H     3.23420   0.05647   0.82101
C     0.75178  -0.10920  -2.29764
C    -0.45938  -0.83888  -2.29312
C     1.12199  -2.08714  -1.22760
C     1.72821  -0.88932  -1.65907
H     0.92626   0.84225  -2.78375
C    -0.22943  -2.06116  -1.64129
H    -1.38743  -0.52883  -2.75280
H     2.77598  -0.64189  -1.56948
H     1.62532  -2.91011  -0.74093
H    -0.96242  -2.83430  -1.46758
C    -1.96519  -1.42367   1.12380
H    -2.26966  -1.12346   2.13577
H    -1.82786  -2.51790   1.19029
H    -2.87693  -1.30471   0.51425
C    -2.07368   2.05364  -0.94564
H    -2.14717   1.25137  -0.19086
H    -0.97859   2.29599  -1.00132
H    -2.66608   2.90248  -0.54777
H    -2.47797   1.65689  -1.90126
30
autodE path point 3. E = -1702.370324710971 charge = 0 mult = 1 
Lu   -0.05395  -0.20932   0.17737
C     0.44473   0.78765   2.52579
C     1.44688  -0.16470   2.22666
C     2.29967   0.39439   1.25135
C     1.80491   1.66697   0.91119
C     0.66211   1.91273   1.70693
H     2.29367   2.37574   0.25274
H     0.08446   2.83044   1.71485
H    -0.32547   0.68219   3.27499
H     1.56846  -1.13034   2.69947
H     3.20777  -0.05586   0.87436
C     0.88611  -0.07495  -2.38203
C    -0.37195  -0.72130  -2.42229
C     1.05748  -2.02326  -1.21222
C     1.76889  -0.88873  -1.65534
H     1.15921   0.83185  -2.90981
C    -0.26340  -1.92743  -1.70926
H    -1.24732  -0.36789  -2.95135
H     2.82852  -0.71713  -1.52814
H     1.47206  -2.85350  -0.65636
H    -1.05686  -2.63795  -1.53718
C    -2.09863  -1.48016   1.16908
H    -2.19583  -1.32508   2.25589
H    -1.82231  -2.54922   1.08957
H    -3.15030  -1.45145   0.81040
C    -2.06615   1.83607  -0.79772
H    -2.01615   0.91964  -0.11526
H    -1.07374   2.20402  -1.01930
H    -2.63344   2.59034  -0.25055
H    -2.59715   1.52509  -1.69690
30
autodE path point 4. E = -1702.312911248284 charge = 0 mult = 1 
Lu    0.00116  -0.00309   0.05140
C     0.43275   0.82584   2.49186
C     1.41049  -0.15150   2.19777
C     2.29683   0.39516   1.24507
C     1.83640   1.68322   0.90600
C     0.68567   1.94702   1.68273
H     2.35694   2.38733   0.26939
H     0.13505   2.88185   1.69680
H    -0.35523   0.73187   3.22638
H     1.51574  -1.11458   2.67714
H     3.20197  -0.07034   0.88588
C     0.92148  -0.06976  -2.41618
C    -0.34427  -0.69415  -2.45761
C     1.04473  -1.99459  -1.20278
C     1.78421  -0.88344  -1.66176
H     1.21894   0.81789  -2.96291
C    -0.26764  -1.87999  -1.71217
H    -1.20982  -0.33233  -3.00069
H     2.84437  -0.73158  -1.52791
H     1.44030  -2.82386  -0.63350
H    -1.07038  -2.58789  -1.55332
C    -2.27636  -1.40327   1.17954
H    -2.20889  -1.32584   2.27550
H    -1.85249  -2.40271   0.96423
H    -3.36238  -1.48637   0.95367
C    -1.95338   1.65847  -0.70152
H    -2.03919   0.44801   0.07691
H    -1.10475   2.26478  -1.11322
H    -2.52598   2.44156  -0.18423
H    -2.54206   1.48254  -1.61349
30
autodE path point 5. E = -1702.299818581654 charge = 0 mult = 1 
Lu    0.01047   0.02828   0.03658
C     0.43956   0.79067   2.51195
C     1.42844  -0.17074   2.19604
C     2.29155   0.39325   1.23829
C     1.81033   1.67653   0.91264
C     0.65958   1.91660   1.69681
H     2.29892   2.38285   0.25702
H     0.09767   2.84214   1.72527
H    -0.34237   0.67766   3.24778
H     1.57213  -1.12416   2.68783
H     3.20698  -0.04934   0.87248
C     0.89099  -0.07283  -2.39831
C    -0.36722  -0.71536  -2.42956
C     1.05212  -2.00067  -1.19307
C     1.77062  -0.88074  -1.65222
H     1.16737   0.82546  -2.93029
C    -0.26736  -1.90798  -1.69146
H    -1.24316  -0.36131  -2.95514
H     2.83067  -0.71573  -1.53449
H     1.47271  -2.83866  -0.65209
H    -1.05465  -2.62979  -1.53480
C    -2.24820  -1.32968   1.13850
H    -2.23359  -1.24418   2.23055
H    -1.79482  -2.31998   0.94679
H    -3.32418  -1.47564   0.88291
C    -1.92578   1.75382  -0.76618
H    -2.10571   0.19071   0.26060
H    -1.05928   2.32952  -1.15159
H    -2.51552   2.52740  -0.25055
H    -2.50361   1.52387  -1.67386
30
autodE path point 6. E = -1702.361945172481 charge = 0 mult = 1 
Lu   -0.04547   0.16829  -0.03681
C     0.43458   0.79437   2.49689
C     1.42437  -0.17257   2.18239
C     2.29058   0.39322   1.23152
C     1.81874   1.68087   0.91292
C     0.65964   1.92611   1.68757
H     2.30657   2.38702   0.25537
H     0.11583   2.85852   1.73322
H    -0.35081   0.68063   3.23015
H     1.57198  -1.12261   2.68042
H     3.21794  -0.04481   0.88355
C     0.89885  -0.07202  -2.40761
C    -0.36676  -0.70245  -2.42982
C     1.05234  -1.98988  -1.18239
C     1.77281  -0.87817  -1.65274
H     1.17560   0.82634  -2.94026
C    -0.26805  -1.89501  -1.68540
H    -1.23267  -0.36126  -2.97455
H     2.83793  -0.72391  -1.54656
H     1.47927  -2.83606  -0.65699
H    -1.06148  -2.60940  -1.51991
C    -2.31212  -1.34758   1.16651
H    -2.22313  -1.19033   2.22942
H    -1.75141  -2.22744   0.86775
H    -3.45319  -1.55881   0.93149
C    -1.81749   1.81858  -0.81981
H    -2.21071  -0.31107   0.57705
H    -1.05862   2.48009  -1.27520
H    -2.44836   2.53445  -0.26150
H    -2.44954   1.53637  -1.68036
30
autodE path point 7. E = -1702.375729044257 charge = 0 mult = 1 
Lu    0.04019   0.30238  -0.14127
C     0.41845   0.90365   2.43523
C     1.37716  -0.10523   2.15580
C     2.30407   0.42209   1.24137
C     1.91413   1.73915   0.93503
C     0.72541   2.02945   1.64766
H     2.46052   2.43076   0.30746
H     0.22512   2.98711   1.68760
H    -0.37720   0.82886   3.15985
H     1.44300  -1.06731   2.64083
H     3.21988  -0.06350   0.92741
C     0.99285  -0.07366  -2.51398
C    -0.30407  -0.63611  -2.52450
C     1.04583  -1.94169  -1.21241
C     1.81772  -0.87509  -1.70460
H     1.30600   0.80444  -3.06141
C    -0.25277  -1.82320  -1.76461
H    -1.13426  -0.30275  -3.12804
H     2.88264  -0.75205  -1.55834
H     1.42218  -2.78557  -0.65007
H    -1.06446  -2.51871  -1.61426
C    -2.52523  -1.52711   1.30906
H    -2.25251  -1.37280   2.36976
H    -2.13141  -2.49520   0.94115
H    -3.66589  -1.34954   1.10127
C    -1.77268   1.77758  -0.79731
H    -2.00035  -0.74550   0.72469
H    -1.26889   2.58029  -1.36480
H    -2.38850   2.32120  -0.06366
H    -2.48407   1.35271  -1.52168
30
autodE path point 8. E = -1702.383647572905 charge = 0 mult = 1 
Lu    0.09896   0.35210  -0.18735
C     0.40448   0.96938   2.40640
C     1.35424  -0.04859   2.15702
C     2.30433   0.45050   1.25017
C     1.94946   1.77910   0.93979
C     0.75521   2.08901   1.63186
H     2.51763   2.45566   0.31534
H     0.24864   3.04422   1.63790
H    -0.39152   0.91907   3.13367
H     1.38917  -1.01171   2.64634
H     3.20504  -0.06069   0.94141
C     1.02970  -0.05953  -2.56946
C    -0.27050  -0.60936  -2.59307
C     1.04265  -1.92104  -1.26168
C     1.83431  -0.86072  -1.73515
H     1.35932   0.81456  -3.11500
C    -0.24541  -1.78735  -1.82382
H    -1.09982  -0.25614  -3.18906
H     2.89329  -0.74408  -1.55895
H     1.38766  -2.75922  -0.67189
H    -1.04790  -2.50253  -1.72138
C    -2.55964  -1.55690   1.35298
H    -2.43157  -1.44304   2.43493
H    -2.61384  -2.61058   1.06606
H    -3.41631  -0.96509   0.97700
C    -1.79624   1.70496  -0.73531
H    -1.62621  -1.22507   0.88324
H    -1.42787   2.54894  -1.34597
H    -2.37153   2.16611   0.08441
H    -2.52544   1.18882  -1.37981
30
autodE path point 9. E = -1702.389254033631 charge = 0 mult = 1 
Lu    0.10078   0.35824  -0.19858
C     0.37069   0.98820   2.38692
C     1.32697  -0.02643   2.16558
C     2.28141   0.45682   1.25574
C     1.92794   1.78049   0.92090
C     0.73639   2.10103   1.61007
H     2.49447   2.44313   0.28118
H     0.21335   3.04639   1.57801
H    -0.44388   0.94383   3.09472
H     1.36214  -0.98568   2.66806
H     3.17690  -0.06216   0.94731
C     1.02226  -0.03924  -2.56453
C    -0.27630  -0.58964  -2.60218
C     1.01925  -1.91336  -1.27673
C     1.82108  -0.85455  -1.73457
H     1.35703   0.83882  -3.09957
C    -0.26764  -1.76397  -1.82872
H    -1.11288  -0.21077  -3.17086
H     2.87758  -0.73767  -1.54922
H     1.35701  -2.75603  -0.68346
H    -1.07854  -2.47215  -1.73077
C    -2.45447  -1.58344   1.35127
H    -2.51188  -1.41020   2.43154
H    -2.85368  -2.56678   1.08562
H    -2.95488  -0.77919   0.79477
C    -1.80521   1.68282  -0.70945
H    -1.37680  -1.64375   1.08350
H    -1.43868   2.52165  -1.32856
H    -2.36232   2.14827   0.11971
H    -2.55033   1.16974  -1.33851
30
autodE path point 10. E = -1702.390911957782 charge = 0 mult = 1 
Lu    0.09952   0.36066  -0.21081
C     0.29518   1.04044   2.32751
C     1.23330  -0.00323   2.16809
C     2.23547   0.43773   1.28866
C     1.92245   1.75668   0.89621
C     0.72857   2.13311   1.55484
H     2.52807   2.38454   0.25844
H     0.22611   3.08518   1.46867
H    -0.56671   1.02650   2.97915
H     1.22274  -0.95595   2.68522
H     3.11360  -0.12076   1.00111
C     1.04243  -0.01704  -2.55402
C    -0.27049  -0.53290  -2.62412
C     0.95777  -1.90172  -1.27906
C     1.80395  -0.87367  -1.72861
H     1.41672   0.84648  -3.08467
C    -0.32372  -1.69037  -1.82699
H    -1.09312  -0.10950  -3.18031
H     2.85930  -0.78544  -1.52205
H     1.25530  -2.74932  -0.67178
H    -1.17226  -2.35287  -1.72049
C    -2.28776  -1.64705   1.37287
H    -2.42735  -1.45343   2.43631
H    -2.89048  -2.48598   1.02570
H    -2.47932  -0.74906   0.77805
C    -1.83246   1.66424  -0.68363
H    -1.18669  -1.99606   1.23594
H    -1.48482   2.50100  -1.31771
H    -2.35894   2.13581   0.16191
H    -2.60102   1.15297  -1.28604
30
autodE path point 11. E = -1702.396647767864 charge = 0 mult = 1 
Lu    0.12042   0.42874  -0.28000
C     0.17963   1.15615   2.19054
C     1.02904   0.03068   2.11439
C     2.15013   0.38305   1.33973
C     1.99070   1.72133   0.92554
C     0.77449   2.20088   1.46118
H     2.69909   2.29131   0.34087
H     0.36543   3.19184   1.33125
H    -0.76043   1.20984   2.71996
H     0.86700  -0.92232   2.59763
H     2.99031  -0.25647   1.11492
C     1.14140  -0.04440  -2.59562
C    -0.21370  -0.43136  -2.68604
C     0.84022  -1.86120  -1.25171
C     1.79240  -0.93563  -1.71825
H     1.60958   0.76323  -3.14098
C    -0.39901  -1.54924  -1.85316
H    -0.97545   0.04688  -3.28238
H     2.84052  -0.91925  -1.45957
H     1.03333  -2.68535  -0.57946
H    -1.32717  -2.08388  -1.70900
C    -2.04571  -1.76530   1.42181
H    -2.18071  -1.68564   2.49699
H    -2.69749  -2.53854   1.02423
H    -2.30740  -0.81350   0.95936
C    -1.85870   1.60331  -0.61471
H    -1.01219  -2.03830   1.21528
H    -1.69659   2.46323  -1.28040
H    -2.29974   2.02244   0.29641
H    -2.64941   1.01746  -1.09880
