! EnGrad PBEh-3c
%output 
xyzfile=True 
end 
%scf 
maxiter 250 
end
%output
Print[P_Hirshfeld] = 1
end
% maxcore
4000
*xyz -1 1
C   -2.11881150  -0.01668819   0.63186322 
C   -1.80808516   1.00819569   1.52860265 
C   -3.47555951  -0.31406262   0.46677713 
C   -4.48601504   0.57279878   0.81467540 
C   -4.15535166   1.69058547   1.55763541 
C   -2.81691436   1.95017697   1.77969012 
H   -2.51650616  -1.92374841  -2.16277423 
H   -3.81635638  -1.32924544   0.30575814 
H   -2.60492192   2.93087998   2.19903702 
H   -5.52825095   0.34197736   0.62655395 
H   -4.93171061   2.36647624   1.89378315 
C   -0.43193833   1.40365102   2.00181630 
C    0.75294403   0.44750191   2.00781642 
H   -0.53910564   1.78375383   3.02976945 
H   -0.17749872   2.31487660   1.44544575 
C    1.72111775   0.67230834   0.88625525 
H    0.37888711  -0.57803706   2.01205637 
H    1.30015385   0.52855503   2.95704055 
C    1.49247008   0.10770918  -0.37268514 
C    2.50614256   0.30834267  -1.31228225 
C    3.56310124   1.19636789  -1.13408410 
C    2.90978077   1.36175563   1.14118970 
C    3.69019565   1.82710337   0.09097006 
H    2.55597180  -0.29012002  -2.21399973 
H    4.28194574   1.38160344  -1.92411187 
H    3.10728290   1.74172438   2.13900656 
H    4.40219326   2.63379418   0.21308603 
Pd   0.09660677  -1.25486276  -0.59725746 
Br  -1.53545329  -3.70560997  -0.50443716 
P    1.43764437  -2.98388384  -0.07563940 
H    1.24068237  -3.63455828   1.16298401 
C    0.25377781  -1.48322232  -3.80175885 
O    1.36094398  -1.80882044  -4.15260402 
O   -0.59484398  -2.31132377  -3.28743267 
O   -0.30643843  -0.31028639  -4.12096307 
H    2.82308951  -2.78812231   0.13176539 
H    1.59572032  -4.12065110  -0.88947785 
H    0.37309810   0.28310453  -4.47405585 
*
