! EnGrad PBEh-3c
%output 
xyzfile=True 
end 
%scf 
maxiter 250 
end
%output
Print[P_Hirshfeld] = 1
end
% maxcore
4000
*xyz -1 1
C   -2.08008674  -0.04619503   0.65518919 
C   -1.81431130   1.02848177   1.47352117 
C   -3.49360906  -0.32490182   0.47950959 
C   -4.49187837   0.55574211   0.85186217 
C   -4.15797895   1.70112456   1.53313731 
C   -2.83752143   1.95132075   1.82194718 
H   -2.45940023  -1.93318051  -2.14266258 
H   -3.81153842  -1.33750287   0.28268006 
H   -2.59534733   2.92389324   2.21084069 
H   -5.53402729   0.33231720   0.63790503 
H   -4.93195969   2.37187454   1.89641530 
C   -0.43161008   1.44086675   2.00477918 
C    0.75209319   0.43151604   2.01355296 
H   -0.53849969   1.79316124   3.00997743 
H   -0.17245964   2.30647941   1.42212200 
C    1.72988134   0.64695234   0.89985973 
H    0.37491000  -0.57739699   2.00411586 
H    1.29159992   0.53815989   2.95039263 
C    1.52844070   0.09937457  -0.36890195 
C    2.51479537   0.28787984  -1.33860126 
C    3.55189107   1.20359564  -1.12621999 
C    2.88309676   1.40434112   1.13338174 
C    3.70812284   1.80867083   0.08918611 
H    2.55038055  -0.29255575  -2.22102603 
H    4.28181248   1.37997169  -1.92645334 
H    3.10167598   1.74006440   2.13947363 
H    4.41422556   2.62312062   0.22246484 
Pd   0.02826851  -1.25874189  -0.58422579 
Br  -1.55026505  -3.67355289  -0.52981167 
P    1.47213317  -2.99172386  -0.07389429 
H    1.22497896  -3.62792328   1.16117404 
C    0.17764629  -1.54669003  -3.81349189 
O    1.41505094  -1.79297898  -4.15233233 
O   -0.59706132  -2.26910634  -3.26745452 
O   -0.29330614  -0.26593757  -4.12810089 
H    2.82215825  -2.78453417   0.14174742 
H    1.59201838  -4.12017023  -0.88227216 
H    0.37509726   0.27474641  -4.48053706 
*
