! EnGrad PBEh-3c
%output 
xyzfile=True 
end 
%scf 
maxiter 250 
end
%output
Print[P_Hirshfeld] = 1
end
% maxcore
4000
*xyz -1 1
C   -2.05444882  -0.11143499   0.69788106 
C   -1.80155980   1.07136317   1.40607894 
C   -3.42790445  -0.42868310   0.59751817 
C   -4.45894370   0.40615709   1.04970648 
C   -4.15442880   1.63047499   1.62139678 
C   -2.82241253   1.92577628   1.82979426 
H   -1.59672344  -2.19204298  -1.92125443 
H   -3.75806171  -1.35453350   0.14001982 
H   -2.56324649   2.82782082   2.37767399 
H   -5.50289543   0.13748089   0.89455697 
H   -4.92706862   2.34124129   1.88445875 
C   -0.41536838   1.51862513   1.78252736 
C    0.68522495   0.47354320   1.96808200 
H   -0.52618442   2.05234686   2.72924800 
H   -0.05266353   2.27757443   1.08172771 
C    1.72452817   0.58976213   0.90108219 
H    0.26948904  -0.53229833   1.99810251 
H    1.16285976   0.61480384   2.93568300 
C    1.54292346  -0.04226985  -0.32149018 
C    2.50139410   0.17146949  -1.32715228 
C    3.53300768   1.08828484  -1.12989517 
C    2.81044718   1.42996686   1.10448373 
C    3.69605481   1.72058118   0.08944121 
H    2.46369810  -0.32618561  -2.29376471 
H    4.23491895   1.31182246  -1.91612971 
H    2.93555055   1.88184615   2.07708511 
H    4.52142614   2.39427643   0.27013291 
Pd  -0.05875471  -1.27352913  -0.32306645 
Br  -2.00956086  -3.20609171  -0.82544199 
P    1.46470598  -2.91568182  -0.07111212 
H    1.08307401  -3.53432087   1.12882806 
C    0.17257655  -1.39037020  -3.80693327 
O    1.32614618  -1.72850728  -4.07947635 
O   -0.68969201  -2.03659203  -3.14175023 
O   -0.25213923  -0.17169492  -4.22388044 
H    2.81383580  -2.73660915   0.27334888 
H    1.59305685  -4.09858217  -0.80946426 
H    0.52771179   0.21444973  -4.64287667 
*
