! EnGrad PBEh-3c
%output 
xyzfile=True 
end 
%scf 
maxiter 250 
end
%output
Print[P_Hirshfeld] = 1
end
% maxcore
4000
*xyz -1 1
C   -2.07149974  -0.06601167   0.66303875 
C   -1.81325449   1.04612665   1.45278876 
C   -3.49050367  -0.33143991   0.48969993 
C   -4.49656311   0.54183903   0.86913250 
C   -4.16058733   1.71194008   1.52643777 
C   -2.84629890   1.94574353   1.83745227 
H   -2.42275649  -1.94098938  -2.12650051 
H   -3.80958816  -1.34300991   0.26822214 
H   -2.58950481   2.92201892   2.22058138 
H   -5.53697536   0.32637351   0.64606885 
H   -4.93217997   2.37462647   1.89678050 
C   -0.43223717   1.44989641   1.99662761 
C    0.74858605   0.42977343   2.01407796 
H   -0.53972303   1.80223604   3.00430582 
H   -0.16657823   2.30643107   1.40555384 
C    1.73688287   0.63585474   0.90552478 
H    0.37048601  -0.58028000   2.00007058 
H    1.28755543   0.54341802   2.94915362 
C    1.54228704   0.08762462  -0.36772751 
C    2.51975716   0.28277630  -1.34234441 
C    3.54896195   1.20249449  -1.13233478 
C    2.86816570   1.42515393   1.12898032 
C    3.71566377   1.80251666   0.09413909 
H    2.54669864  -0.29798492  -2.23274001 
H    4.27954866   1.37903710  -1.92523445 
H    3.09784479   1.74088139   2.14012003 
H    4.42194193   2.61503422   0.22770295 
Pd  -0.00549302  -1.25984080  -0.57308369 
Br  -1.56215836  -3.65114536  -0.54812569 
P    1.48404731  -2.99141978  -0.07343088 
H    1.21571945  -3.62397915   1.16005657 
C    0.20027974  -1.54554423  -3.84590280 
O    1.40697435  -1.78090538  -4.14272173 
O   -0.62363144  -2.26911161  -3.24242930 
O   -0.30150140  -0.26233160  -4.12366994 
H    2.82696428  -2.78185039   0.14877601 
H    1.59043561  -4.12179418  -0.87900732 
H    0.39117314   0.27677058  -4.49092598 
*
