! EnGrad PBEh-3c
%output 
xyzfile=True 
end 
%scf 
maxiter 250 
end
%output
Print[P_Hirshfeld] = 1
end
% maxcore
4000
*xyz -1 1
C   -2.07150135  -0.08081277   0.66674856 
C   -1.81116603   1.06071816   1.44276086 
C   -3.47881340  -0.33934569   0.50057606 
C   -4.49837748   0.53076029   0.88196708 
C   -4.16532315   1.71856716   1.52445976 
C   -2.84744691   1.93977107   1.84259511 
H   -2.38253177  -1.95280453  -2.10990601 
H   -3.80764247  -1.34716587   0.25347895 
H   -2.58452818   2.92036453   2.23186029 
H   -5.53945694   0.32015154   0.65432045 
H   -4.93336010   2.37823604   1.89603284 
C   -0.43287544   1.44932906   1.98267885 
C    0.74332889   0.43320615   2.01191535 
H   -0.54240653   1.81236056   3.00288113 
H   -0.15802348   2.31060432   1.38959015 
C    1.74248884   0.62918132   0.90664632 
H    0.36506678  -0.58472509   1.99745364 
H    1.28448479   0.54782877   2.95054660 
C    1.54613329   0.07143866  -0.36445532 
C    2.52326061   0.28082001  -1.34042037 
C    3.54984763   1.19948100  -1.14012902 
C    2.85736528   1.43951090   1.12647054 
C    3.71791881   1.79949276   0.09866979 
H    2.54242642  -0.30394993  -2.24669202 
H    4.27652934   1.37846217  -1.92362159 
H    3.09334531   1.74384443   2.14066013 
H    4.43003406   2.60636071   0.23249010 
Pd  -0.02967656  -1.26001712  -0.55845080 
Br  -1.57694102  -3.62606705  -0.56817028 
P    1.48600986  -2.98660200  -0.07417617 
H    1.20796113  -3.62033500   1.15847772 
C    0.22395147  -1.53493791  -3.86435999 
O    1.38295844  -1.77157749  -4.13337148 
O   -0.64022535  -2.26549890  -3.22811446 
O   -0.30592326  -0.26890652  -4.12088146 
H    2.83656895  -2.77889257   0.15575233 
H    1.58966324  -4.12486411  -0.87707165 
H    0.40529849   0.27736254  -4.49985964 
*
