! EnGrad PBEh-3c
%output 
xyzfile=True 
end 
%scf 
maxiter 250 
end
%output
Print[P_Hirshfeld] = 1
end
% maxcore
4000
*xyz -1 1
C   -2.06717156  -0.10697791   0.68761002 
C   -1.80997588   1.07864509   1.41517115 
C   -3.44314499  -0.40202130   0.56792641 
C   -4.48518011   0.48199247   0.94570574 
C   -4.17814453   1.70368108   1.54076732 
C   -2.83709504   1.94072350   1.82710449 
H   -2.08119594  -2.06297850  -1.99546193 
H   -3.78703921  -1.35884480   0.16986366 
H   -2.56340418   2.88999614   2.30424001 
H   -5.53874837   0.27107901   0.71582312 
H   -4.94739517   2.40228772   1.88786455 
C   -0.42774176   1.47424861   1.91023561 
C    0.72102846   0.43981710   1.99420129 
H   -0.55747842   1.87281832   2.94723554 
H   -0.09893033   2.32806180   1.29419644 
C    1.74411989   0.60653369   0.89700213 
H    0.33328652  -0.59156804   1.98901571 
H    1.25117335   0.57301615   2.95270187 
C    1.54608220  -0.02156896  -0.33981114 
C    2.52091002   0.23690265  -1.34310790 
C    3.55177159   1.17091585  -1.14166730 
C    2.82277011   1.47819137   1.11599730 
C    3.70904672   1.79421985   0.09904451 
H    2.51469149  -0.31682772  -2.30156601 
H    4.27122516   1.37702039  -1.92968444 
H    3.05386810   1.78066773   2.13842810 
H    4.48307797   2.54219979   0.26109052 
Pd  -0.12168508  -1.26888106  -0.45074641 
Br  -1.69776910  -3.43092025  -0.72089221 
P    1.48078426  -2.94767129  -0.08274710 
H    1.16222928  -3.59314437   1.14335968 
C    0.18800889  -1.46540053  -3.82753300 
O    1.33773235  -1.75913018  -4.12044001 
O   -0.68147434  -2.20887996  -3.19472673 
O   -0.28739500  -0.25917759  -4.15799933 
H    2.88036364  -2.76241811   0.19888796 
H    1.58788673  -4.13544519  -0.85876007 
H    0.44685695   0.25167680  -4.53522563 
*
