! EnGrad PBEh-3c
%output 
xyzfile=True 
end 
%scf 
maxiter 250 
end
%output
Print[P_Hirshfeld] = 1
end
% maxcore
4000
*xyz -1 1
C   -2.31280021  -0.08421032   0.71758169 
C   -1.90066339   0.94695425   1.57931828 
C   -3.65676590  -0.45981874   0.81222637 
C   -4.63377499   0.48347990   1.11042563 
C   -4.24278940   1.60224346   1.82820771 
C   -2.88963922   1.85232312   1.99586084 
H   -2.63990807  -1.42064539  -1.71319423 
H   -3.97981624  -1.48657118   0.69679683 
H   -2.66137461   2.90215179   2.17596427 
H   -5.68566987   0.25482408   0.98737059 
H   -5.00069216   2.29449705   2.17389057 
C   -0.47679478   1.46234584   1.60813986 
C    0.67130747   0.49980813   1.82390534 
H   -0.37954310   2.22620656   2.40131996 
H   -0.34471204   2.08334524   0.71736227 
C    1.75799838   0.65238517   0.79392380 
H    0.30057778  -0.52637976   1.83984152 
H    1.11468703   0.62519078   2.82026929 
C    1.65515559   0.02015325  -0.45469192 
C    2.71562499   0.19627495  -1.34302211 
C    3.73272284   1.11871186  -1.12313666 
C    2.94148037   1.32118382   1.11308965 
C    3.78791074   1.75932551   0.10190951 
H    2.79527944  -0.39153447  -2.24855603 
H    4.46366515   1.33377088  -1.89382677 
H    3.06748991   1.72733306   2.11156509 
H    4.46558184   2.59110854   0.24891388 
Pd   0.24341057  -1.29904440  -0.77792570 
Br  -1.48873003  -3.75187772  -0.80127997 
P    1.38446791  -2.98937749   0.06514219 
H    0.93244537  -3.55736945   1.27241480 
C    0.41613505  -1.32595186  -3.86451215 
O    1.50883090  -1.73736813  -4.18421080 
O   -0.47046420  -2.04881884  -3.28197241 
O   -0.13456584  -0.20196361  -4.36013785 
H    2.71897548  -2.80570135   0.49146284 
H    1.65499947  -4.16738439  -0.65661058 
H    0.56995071   0.30040057  -4.78380951 
*
