! EnGrad PBEh-3c
%output 
xyzfile=True 
end 
%scf 
maxiter 250 
end
%output
Print[P_Hirshfeld] = 1
end
% maxcore
4000
*xyz -1 1
C   -2.27101043  -0.15902583   0.70954870 
C   -1.90012651   1.03820083   1.37143011 
C   -3.62858122  -0.50077612   0.76707252 
C   -4.61110872   0.39482870   1.21528172 
C   -4.23026390   1.62478965   1.73861243 
C   -2.87182919   1.90467615   1.86302442 
H   -1.92319289  -1.65133168  -1.09500913 
H   -3.95091287  -1.43944847   0.32099740 
H   -2.57136596   2.79157469   2.41194067 
H   -5.66776570   0.15511715   1.10868484 
H   -4.97101199   2.35269918   2.06157990 
C   -0.46039087   1.49084577   1.55696215 
C    0.63639319   0.45253461   1.83992742 
H   -0.48232313   2.19029398   2.40563226 
H   -0.13105780   2.10135835   0.71244276 
C    1.72529120   0.54577231   0.80985455 
H    0.22208658  -0.55485055   1.86815614 
H    1.07527090   0.62753006   2.82900230 
C    1.63159879  -0.11509039  -0.42570800 
C    2.63555271   0.13810038  -1.37073049 
C    3.63297465   1.08417954  -1.13762016 
C    2.80298923   1.40252903   1.06002371 
C    3.72960007   1.72482288   0.08809821 
H    2.63427659  -0.36830724  -2.33235996 
H    4.37065507   1.30395402  -1.89337160 
H    2.90754710   1.85345906   2.04006771 
H    4.55054600   2.40738923   0.30296448 
Pd   0.10009598  -1.41215159  -0.76360645 
Br  -1.72078946  -3.32876934  -0.81737768 
P    1.44981345  -2.94544133   0.07091551 
H    0.95915697  -3.54085746   1.23594886 
C    0.37287459  -1.31998605  -3.87859164 
O    1.51195665  -1.64164821  -4.18938780 
O   -0.43327072  -1.91022310  -3.09014443 
O   -0.12859769  -0.12753890  -4.34955627 
H    2.76939087  -2.72959533   0.46343574 
H    1.58682870  -4.09504815  -0.70745917 
H    0.63125512   0.25290733  -4.80753724 
*
