! EnGrad PBEh-3c
%output 
xyzfile=True 
end 
%scf 
maxiter 250 
end
%output
Print[P_Hirshfeld] = 1
end
% maxcore
4000
*xyz -1 1
C   -2.25889127  -0.15319892   0.66763602 
C   -1.89659403   1.02761702   1.35277924 
C   -3.62098820  -0.48680103   0.73733834 
C   -4.60284237   0.39299902   1.21146887 
C   -4.22666042   1.61843509   1.73403593 
C   -2.87034119   1.87883713   1.88092040 
H   -1.84536479  -1.69175268  -0.95573825 
H   -3.95601863  -1.42550268   0.30499451 
H   -2.57226013   2.78050226   2.40572396 
H   -5.65819916   0.14391460   1.13494050 
H   -4.96545075   2.34430173   2.05561885 
C   -0.46369455   1.48480976   1.54654577 
C    0.62716306   0.44825948   1.83665147 
H   -0.48388546   2.19017260   2.38689369 
H   -0.11988441   2.09818576   0.70937776 
C    1.71822354   0.53856074   0.81060367 
H    0.20745008  -0.55397719   1.87261845 
H    1.06528925   0.62467653   2.82293754 
C    1.62458691  -0.11171035  -0.42625379 
C    2.62302549   0.13692333  -1.37451940 
C    3.62356268   1.07614883  -1.14017715 
C    2.79126347   1.39639580   1.05521502 
C    3.72700092   1.70069459   0.08852409 
H    2.62004884  -0.36671766  -2.33594229 
H    4.35877743   1.29285642  -1.89788124 
H    2.87683160   1.86624558   2.02422018 
H    4.54018386   2.38237529   0.30007309 
Pd   0.11981246  -1.38551010  -0.74961024 
Br  -1.76863526  -3.26069397  -0.82736536 
P    1.44966956  -2.94088324   0.07232366 
H    0.96369292  -3.54229401   1.24198510 
C    0.37124452  -1.30724298  -3.87213955 
O    1.51957354  -1.63127749  -4.19528780 
O   -0.42310960  -1.88391114  -3.06644491 
O   -0.11532395  -0.12538787  -4.35116494 
H    2.77548448  -2.72413499   0.46290958 
H    1.58959210  -4.09261979  -0.71119277 
H    0.63614691   0.25730393  -4.82257139 
*
