! EnGrad PBEh-3c
%output 
xyzfile=True 
end 
%scf 
maxiter 250 
end
%output
Print[P_Hirshfeld] = 1
end
% maxcore
4000
*xyz -1 1
C   -2.31962789  -0.11356301   0.78796588 
C   -1.88582333   0.99214004   1.47250528 
C   -3.66557251  -0.45865316   0.77492196 
C   -4.63070526   0.44431701   1.17872211 
C   -4.24571120   1.62507800   1.78260079 
C   -2.91723787   1.86590899   1.98695894 
H   -2.56516363  -1.44159878  -1.67503094 
H   -3.96931575  -1.48465198   0.63734066 
H   -2.63344621   2.88628462   2.22327003 
H   -5.68203461   0.24710181   0.98484260 
H   -4.99232645   2.30939107   2.15951116 
C   -0.48279856   1.50872577   1.63282239 
C    0.69391372   0.47013104   1.83618021 
H   -0.40076578   2.21350725   2.42072453 
H   -0.32734271   2.07183735   0.71716038 
C    1.77885138   0.60615480   0.82025850 
H    0.29635901  -0.53319134   1.83695071 
H    1.11410601   0.63262480   2.82164379 
C    1.68539365   0.00633014  -0.44298941 
C    2.70976131   0.18502217  -1.36535085 
C    3.71141178   1.13122693  -1.12202493 
C    2.89285783   1.39218246   1.09916669 
C    3.80334641   1.74458694   0.10386885 
H    2.77177155  -0.39580996  -2.26181151 
H    4.45333166   1.33294429  -1.89443270 
H    3.06124903   1.73204657   2.11354089 
H    4.48301194   2.57436429   0.26224502 
Pd   0.15332313  -1.33111279  -0.81781271 
Br  -1.49438975  -3.70784335  -0.79103375 
P    1.41855717  -3.00257757   0.08059981 
H    0.93395997  -3.55507954   1.26386992 
C    0.36158345  -1.43599624  -3.92662994 
O    1.56840357  -1.68981582  -4.18272855 
O   -0.49895925  -2.02614382  -3.19585466 
O   -0.12995498  -0.14828331  -4.35018983 
H    2.72763165  -2.79355920   0.48593492 
H    1.63859421  -4.15670223  -0.66835661 
H    0.58111556   0.30465010  -4.78864417 
*
