! EnGrad PBEh-3c
%output 
xyzfile=True 
end 
%scf 
maxiter 250 
end
%output
Print[P_Hirshfeld] = 1
end
% maxcore
4000
*xyz -1 1
C   -2.31789419  -0.12651164   0.79911760 
C   -1.89555138   1.01651669   1.45796707 
C   -3.66846330  -0.46190139   0.77083691 
C   -4.63500906   0.43232540   1.19300001 
C   -4.25073561   1.63068089   1.77449895 
C   -2.90740504   1.86744643   1.97235228 
H   -2.53484570  -1.44876724  -1.65495232 
H   -3.96635194  -1.48479258   0.61396998 
H   -2.62504630   2.88121071   2.24230703 
H   -5.67995024   0.24323435   0.98739986 
H   -4.99072655   2.31516163   2.15372683 
C   -0.47438682   1.50140073   1.62226201 
C    0.68976953   0.47106203   1.83792998 
H   -0.40861320   2.21948965   2.43613463 
H   -0.31766173   2.07161375   0.71561361 
C    1.78517408   0.59655069   0.82366475 
H    0.29260084  -0.53896075   1.83665968 
H    1.11529683   0.63459946   2.82596744 
C    1.68351685  -0.00937058  -0.44208350 
C    2.70884522   0.18733556  -1.36441783 
C    3.70774806   1.12944885  -1.12899247 
C    2.88277682   1.40964072   1.09429865 
C    3.80185645   1.74512909   0.10901924 
H    2.76290268  -0.39911911  -2.27161642 
H    4.44845595   1.33274605  -1.89302465 
H    3.05738712   1.73689443   2.11441508 
H    4.49049903   2.56665483   0.26684660 
Pd   0.13509902  -1.34311590  -0.82503225 
Br  -1.49881920  -3.69007737  -0.78849904 
P    1.41983201  -2.99728548   0.07907046 
H    0.93377280  -3.55587304   1.26384932 
C    0.37702984  -1.43569122  -3.93860665 
O    1.54829740  -1.67781692  -4.17877774 
O   -0.50127693  -2.02297858  -3.18244054 
O   -0.13409230  -0.15724667  -4.34146864 
H    2.73605867  -2.78874618   0.48645678 
H    1.63382012  -4.15547479  -0.67309759 
H    0.59252493   0.30709382  -4.79363968 
*
