! EnGrad PBEh-3c
%output 
xyzfile=True 
end 
%scf 
maxiter 250 
end
%output
Print[P_Hirshfeld] = 1
end
% maxcore
4000
*xyz -1 1
C   -2.31490302  -0.14819068   0.81777783 
C   -1.91085277   1.05216314   1.42999077 
C   -3.66896175  -0.47088535   0.76743988 
C   -4.64221827   0.41695343   1.22003415 
C   -4.25473432   1.63403994   1.75997709 
C   -2.89526145   1.87816937   1.94041396 
H   -2.46793542  -1.46413608  -1.60842463 
H   -3.96147403  -1.48644343   0.56392957 
H   -2.60811900   2.87004053   2.28254228 
H   -5.67891124   0.23345305   0.99450419 
H   -4.98916734   2.32857605   2.14229866 
C   -0.45995301   1.49355106   1.60866851 
C    0.68091030   0.47046946   1.84096998 
H   -0.42471646   2.22566240   2.45763302 
H   -0.29455929   2.07340253   0.70934797 
C    1.79187688   0.57820919   0.82517844 
H    0.28488316  -0.54906010   1.83666852 
H    1.11617145   0.63828253   2.83412876 
C    1.67690011  -0.04211480  -0.43771025 
C    2.70410436   0.18606989  -1.36728466 
C    3.70112809   1.12794332  -1.13422455 
C    2.86518285   1.43919075   1.08757984 
C    3.79665007   1.74689595   0.11158415 
H    2.74428451  -0.40246897  -2.28837203 
H    4.44021996   1.33252392  -1.89225081 
H    3.04756783   1.74903985   2.11481463 
H    4.50696479   2.54992957   0.27670526 
Pd   0.10417144  -1.36844182  -0.83636548 
Br  -1.51021660  -3.65125492  -0.78439780 
P    1.42041837  -2.98406664   0.07473673 
H    0.93353798  -3.55729487   1.26360168 
C    0.38750961  -1.40855600  -3.94919709 
O    1.52959296  -1.66463319  -4.17867417 
O   -0.50670938  -2.02388132  -3.15747945 
O   -0.12975407  -0.17291826  -4.33414301 
H    2.75267670  -2.77880265   0.48767770 
H    1.62415696  -4.15241237  -0.68218311 
H    0.60419671   0.30449130  -4.79688619 
*
