! EnGrad PBEh-3c
%output 
xyzfile=True 
end 
%scf 
maxiter 250 
end
%output
Print[P_Hirshfeld] = 1
end
% maxcore
4000
*xyz -1 1
C   -2.30975887  -0.16344801   0.82302771 
C   -1.91698394   1.06657623   1.41089937 
C   -3.66442656  -0.48275393   0.77628179 
C   -4.64559912   0.40766536   1.23522327 
C   -4.25734871   1.63247535   1.75398578 
C   -2.88766914   1.90250074   1.90119389 
H   -2.38237315  -1.48430018  -1.54558530 
H   -3.95771734  -1.48924863   0.50403097 
H   -2.59139907   2.85721199   2.32800281 
H   -5.68188959   0.21988619   1.00666667 
H   -4.98721765   2.34252396   2.12729047 
C   -0.45079114   1.48761521   1.59484598 
C    0.67016007   0.46822512   1.84412488 
H   -0.44150203   2.22742508   2.47153502 
H   -0.26159005   2.08020451   0.70191635 
C    1.78907240   0.56688773   0.82055990 
H    0.27524593  -0.55800972   1.83891732 
H    1.11463237   0.64044344   2.84184453 
C    1.66455480  -0.08044538  -0.43520296 
C    2.69254703   0.18011312  -1.36801000 
C    3.69362112   1.12193102  -1.13621637 
C    2.85089592   1.45325046   1.08176192 
C    3.78482876   1.75538355   0.11035575 
H    2.72261340  -0.40159175  -2.30488372 
H    4.43208460   1.33261759  -1.89318354 
H    3.03251605   1.76796097   2.11281299 
H    4.52647109   2.52827017   0.28725225 
Pd   0.08515421  -1.39718959  -0.83875011 
Br  -1.52931405  -3.60305317  -0.78142104 
P    1.41675123  -2.96489204   0.06697647 
H    0.93478239  -3.55828388   1.26223185 
C    0.37870756  -1.35304862  -3.92233884 
O    1.51819484  -1.66482818  -4.18745277 
O   -0.49661377  -2.01999797  -3.15426913 
O   -0.12082466  -0.19361597  -4.33600124 
H    2.76932849  -2.76772415   0.48802931 
H    1.61377830  -4.14720601  -0.69117113 
H    0.60994118   0.29465705  -4.79503746 
*
