! EnGrad PBEh-3c
%output 
xyzfile=True 
end 
%scf 
maxiter 250 
end
%output
Print[P_Hirshfeld] = 1
end
% maxcore
4000
*xyz -1 1
C   -2.30656028  -0.16735108   0.82218168 
C   -1.90882186   1.06007445   1.39495834 
C   -3.66039755  -0.49164285   0.78426439 
C   -4.64248610   0.40258177   1.24053809 
C   -4.25550175   1.63257501   1.75220134 
C   -2.89366185   1.92275743   1.87801911 
H   -2.31496136  -1.50139318  -1.49484230 
H   -3.95529462  -1.48895727   0.46165232 
H   -2.58057341   2.84854833   2.35839681 
H   -5.68563510   0.20919481   1.01724368 
H   -4.98495111   2.35063106   2.11543769 
C   -0.45432676   1.49714836   1.59389348 
C    0.66945517   0.46015618   1.84719523 
H   -0.45184230   2.22074309   2.46983509 
H   -0.23603087   2.08514872   0.69827861 
C    1.78024775   0.56014740   0.81702096 
H    0.26856720  -0.56089130   1.84171297 
H    1.11055049   0.64081897   2.84356920 
C    1.66037004  -0.10004027  -0.43289094 
C    2.68062861   0.16976672  -1.37158610 
C    3.68530676   1.11793023  -1.13219228 
C    2.84010761   1.45493847   1.07882084 
C    3.77630035   1.76048965   0.10446135 
H    2.70704054  -0.39709324  -2.31232111 
H    4.42664474   1.33223884  -1.89510791 
H    3.01912461   1.78287787   2.10841848 
H    4.53987956   2.51180564   0.29433029 
Pd   0.07444963  -1.41635869  -0.83706858 
Br  -1.54717911  -3.56618052  -0.78045142 
P    1.41951098  -2.95621940   0.06494597 
H    0.93714877  -3.55693667   1.25806459 
C    0.37182629  -1.34706546  -3.88911727 
O    1.51164265  -1.66304345  -4.19392831 
O   -0.48063921  -2.00347127  -3.15870072 
O   -0.11826445  -0.18304568  -4.34653543 
H    2.77505631  -2.76009957   0.48575613 
H    1.60605182  -4.13987728  -0.69593556 
H    0.60871212   0.28331969  -4.79056359 
*
