! EnGrad PBEh-3c
%output 
xyzfile=True 
end 
%scf 
maxiter 250 
end
%output
Print[P_Hirshfeld] = 1
end
% maxcore
4000
*xyz -1 1
C   -2.30218704  -0.16214003   0.81002758 
C   -1.89911237   1.04229161   1.39087063 
C   -3.65623770  -0.49944851   0.79375953 
C   -4.63560250   0.40250714   1.23400414 
C   -4.24966737   1.63201155   1.75528664 
C   -2.90001546   1.93429038   1.86274079 
H   -2.25494148  -1.51853786  -1.44592304 
H   -3.95397136  -1.48509319   0.43127320 
H   -2.57547232   2.84244441   2.37721001 
H   -5.68872873   0.19968573   1.02905310 
H   -4.98339088   2.35447859   2.10532420 
C   -0.46262504   1.51158286   1.59900681 
C    0.67126022   0.45232837   1.84866314 
H   -0.45777789   2.20822824   2.45526010 
H   -0.21388631   2.09040459   0.69820661 
C    1.76571403   0.55947253   0.81250440 
H    0.26298046  -0.55980574   1.84587191 
H    1.10445732   0.63907030   2.84145763 
C    1.65834686  -0.10694212  -0.43122667 
C    2.66882112   0.15768366  -1.37465023 
C    3.67688009   1.11320241  -1.12622203 
C    2.83427234   1.44269871   1.07777462 
C    3.76673047   1.76325516   0.09600841 
H    2.69510411  -0.38943993  -2.31380530 
H    4.42142388   1.33080604  -1.89675124 
H    3.00464275   1.79642774   2.10057679 
H    4.54863209   2.49751253   0.29846261 
Pd   0.07513457  -1.42716479  -0.82815072 
Br  -1.56804299  -3.53448391  -0.78231875 
P    1.42531017  -2.95351006   0.06581192 
H    0.94079710  -3.55371337   1.25184331 
C    0.35980630  -1.35702182  -3.85043391 
O    1.51048360  -1.66500383  -4.19887170 
O   -0.45628410  -1.97873809  -3.17212235 
O   -0.12092461  -0.16200365  -4.35914088 
H    2.77277083  -2.75481601   0.48132698 
H    1.60056841  -4.13063781  -0.69749010 
H    0.60497773   0.27156457  -4.78569077 
*
