! EnGrad PBEh-3c
%output 
xyzfile=True 
end 
%scf 
maxiter 250 
end
%output
Print[P_Hirshfeld] = 1
end
% maxcore
4000
*xyz -1 1
C   -2.28406311  -0.16350723   0.76720816 
C   -1.89759239   1.03787624   1.37773049 
C   -3.64344099  -0.51842321   0.80026239 
C   -4.62271649   0.39533468   1.22590475 
C   -4.23769207   1.62969664   1.74811621 
C   -2.88517563   1.94489572   1.82807346 
H   -2.03927470  -1.58840483  -1.25732095 
H   -3.94765752  -1.46362329   0.33533775 
H   -2.56286664   2.81161862   2.42836438 
H   -5.68420010   0.16879268   1.07291781 
H   -4.97795453   2.36538846   2.07221664 
C   -0.46398090   1.51730905   1.58178993 
C    0.65771045   0.44623858   1.84867860 
H   -0.48066587   2.18733181   2.42962057 
H   -0.14713682   2.10297074   0.70598703 
C    1.73528983   0.55036934   0.80675263 
H    0.23978190  -0.56091066   1.85981320 
H    1.08776640   0.63321519   2.83795075 
C    1.64483433  -0.12935266  -0.42580606 
C    2.64286912   0.13656413  -1.37392101 
C    3.64775765   1.09405350  -1.12940492 
C    2.81058202   1.41952036   1.06768121 
C    3.73686338   1.75807881   0.08531778 
H    2.65200578  -0.37286326  -2.32919175 
H    4.39253774   1.32024939  -1.89467087 
H    2.95025020   1.83797140   2.06912919 
H    4.56856346   2.44307765   0.30920741 
Pd   0.07092737  -1.44916796  -0.79614285 
Br  -1.64983654  -3.41521027  -0.79479373 
P    1.44565125  -2.94539161   0.06820267 
H    0.95247274  -3.54381001   1.23473370 
C    0.36685981  -1.33224202  -3.83809284 
O    1.50294786  -1.65815340  -4.19644005 
O   -0.43339830  -1.93696618  -3.14098010 
O   -0.13856377  -0.13409988  -4.36024339 
H    2.77035756  -2.73604061   0.46765985 
H    1.58393276  -4.10263303  -0.70520180 
H    0.62150208   0.25041952  -4.78943615 
*
