! EnGrad PBEh-3c
%output 
xyzfile=True 
end 
%scf 
maxiter 250 
end
%output
Print[P_Hirshfeld] = 1
end
% maxcore
4000
%pal nprocs 4
end
*xyz 0 1
Pd   2.10709897   0.72197331  -0.71195834 
O   -0.48998839   2.64845024  -0.59493669 
O    0.09890711   0.51287386  -0.26470004 
O    4.09197567   1.07873420  -0.86274051 
O    3.08669627   1.88814981   0.89157777 
C   -0.74056580   1.39895817  -0.28180528 
C   -2.17579925   1.13851686   0.03130872 
H   -2.58368100   1.91470429   0.67607656 
H   -2.29034752   0.16598260   0.49900559 
H   -2.75211758   1.14853312  -0.89557510 
C    4.13513619   1.73657160   0.22647287 
C    5.44052774   2.33265120   0.65948767 
H    5.37916687   2.71400646   1.67535250 
H    5.70517601   3.15397320  -0.00818840 
H    6.23941126   1.59589549   0.59088551 
C    1.82988496  -0.24861818  -2.37662479 
C    0.85387853   0.11710375  -3.29871708 
C    2.65032905  -1.33657153  -2.65943602 
C    0.69580027  -0.59790013  -4.47967864 
C    1.50400284  -1.69145253  -4.74824728 
C    2.48059390  -2.05776796  -3.83424240 
H   -0.06213790  -0.29544690  -5.19164017 
H    1.37846401  -2.25086841  -5.66596248 
H    0.45263722   2.78722210  -0.78741544 
H    0.20907474   0.97187259  -3.12633754 
H    3.43470110  -1.62846423  -1.97134754 
H    3.12276474  -2.90560298  -4.03727344 
*
