! EnGrad PBEh-3c
%output 
xyzfile=True 
end 
%scf 
maxiter 250 
end
%output
Print[P_Hirshfeld] = 1
end
% maxcore
4000
*xyz 0 1
C   -1.32769422   0.13047941  -0.81974781 
C   -2.23812965  -0.86998826  -1.15392401 
C   -2.03908589  -2.17305946  -0.71857660 
C   -0.97434740  -2.44329984   0.13342789 
C   -0.19445306  -0.16768781  -0.06852137 
C   -0.07591900  -1.44248349   0.47839187 
H   -1.49628492   1.13368194  -1.19472244 
H   -3.06889200  -0.63732735  -1.81451653 
H   -2.67494959  -2.97486118  -1.07165865 
H    0.75073344  -1.67839741   1.13595652 
H   -0.79809308  -3.45623080   0.48443216 
Pd   1.39634546   0.96624164  -0.18184618 
O    3.47939124   1.47462454  -0.82091866 
O    2.67896336  -0.54618545  -0.59236231 
O    0.32924397   2.71551979   0.26739958 
C   -0.23895177   2.76779292   1.34014597 
O   -0.05295241   1.85168926   2.25948895 
H   -0.78897345   1.76572229   2.87821631 
C    3.62534494   0.24267881  -0.88695542 
H    4.58122077  -0.20429181  -1.20031019 
H   -0.92787223   3.58066634   1.57312207 
*
