! EnGrad PBEh-3c
%output 
xyzfile=True 
end 
%scf 
maxiter 250 
end
%output
Print[P_Hirshfeld] = 1
end
% maxcore
4000
*xyz 0 1
C   -1.33045290   0.12623756  -0.82635176 
C   -2.24610543  -0.87444320  -1.14918162 
C   -2.05167211  -2.17193300  -0.71037369 
C   -0.98548554  -2.44403278   0.13233028 
C   -0.19173758  -0.17216428  -0.07957051 
C   -0.07784866  -1.44775684   0.47143679 
H   -1.49193707   1.13234769  -1.20647875 
H   -3.07262210  -0.63672432  -1.80578503 
H   -2.69209854  -2.96775891  -1.05088694 
H    0.75701236  -1.68142976   1.12670037 
H   -0.80275018  -3.45198365   0.48207147 
Pd   1.40178738   0.96540867  -0.18482597 
O    3.49059436   1.48140254  -0.81417714 
O    2.68923453  -0.54040869  -0.59945800 
O    0.32511357   2.70183534   0.27549078 
C   -0.23582500   2.76714566   1.33604999 
O   -0.04082654   1.84904061   2.26301640 
H   -0.78562346   1.75882918   2.86800350 
C    3.63797185   0.24950859  -0.88146035 
H    4.59361056  -0.19472890  -1.19060881 
H   -0.93908089   3.58445096   1.56786097 
*
