! EnGrad PBEh-3c
%output 
xyzfile=True 
end 
%scf 
maxiter 250 
end
%output
Print[P_Hirshfeld] = 1
end
% maxcore
4000
*xyz 0 1
C   -1.32839500   0.13350892  -0.81295764 
C   -2.23142928  -0.86817069  -1.15799703 
C   -2.02625626  -2.17291674  -0.72674777 
C   -0.96668010  -2.44295268   0.13389984 
C   -0.19780578  -0.16416502  -0.05856152 
C   -0.07613070  -1.43980272   0.48566930 
H   -1.50106774   1.13449486  -1.18468962 
H   -3.06226301  -0.63899808  -1.82042512 
H   -2.65957118  -2.97993305  -1.08890986 
H    0.74443568  -1.67590365   1.14530837 
H   -0.79333773  -3.45668707   0.48302210 
Pd   1.38790744   0.96737004  -0.17949249 
O    3.47203394   1.46909430  -0.82875166 
O    2.67166925  -0.55128598  -0.58550962 
O    0.32734275   2.72271893   0.27834955 
C   -0.23795698   2.76568163   1.33267051 
O   -0.05938202   1.85332673   2.25958397 
H   -0.78767849   1.77026505   2.87734674 
C    3.61579807   0.23610765  -0.89152654 
H    4.57032668  -0.21194012  -1.20859682 
H   -0.92085607   3.58557987   1.57597620 
*
