! EnGrad PBEh-3c
%output 
xyzfile=True 
end 
%scf 
maxiter 250 
end
%output
Print[P_Hirshfeld] = 1
end
% maxcore
4000
*xyz 0 1
C   -1.34790688   0.11778365  -0.85074287 
C   -2.27823971  -0.86921336  -1.14489345 
C   -2.08715849  -2.15397749  -0.67491174 
C   -0.99582644  -2.45970996   0.12414605 
C   -0.17628389  -0.14346212  -0.07903783 
C   -0.08281889  -1.47103680   0.45235030 
H   -1.49982428   1.10341693  -1.30140636 
H   -3.12128804  -0.63614525  -1.77240310 
H   -2.79758251  -2.92697376  -0.92952405 
H    0.77151449  -1.74260085   1.07451629 
H   -0.83913160  -3.46840196   0.46999000 
Pd   1.41092517   0.96885266  -0.23108345 
O    3.55498320   1.51265312  -0.76798339 
O    2.74969255  -0.51089665  -0.63242516 
O    0.29220185   2.67888455   0.20092826 
C   -0.21977947   2.75499909   1.29988567 
O   -0.05383946   1.88264340   2.38555579 
H   -0.75745360   1.67011684   2.86477443 
C    3.71343922   0.28073705  -0.86376631 
H    4.68480972  -0.14690096  -1.14453390 
H   -0.92324943   3.56102522   1.52140333 
*
