! EnGrad PBEh-3c
%output 
xyzfile=True 
end 
%scf 
maxiter 250 
end
%output
Print[P_Hirshfeld] = 1
end
% maxcore
4000
*xyz 0 1
C   -1.32773585   0.12849474  -0.82564175 
C   -2.24869866  -0.86115173  -1.13654932 
C   -2.06964241  -2.16710282  -0.69440734 
C   -0.98804629  -2.42982810   0.13958043 
C   -0.20314366  -0.18715229  -0.09264186 
C   -0.07578903  -1.44166615   0.46039961 
H   -1.49695948   1.10362782  -1.24668152 
H   -3.09652718  -0.64166996  -1.79126813 
H   -2.75851927  -2.95929188  -0.99264565 
H    0.74710607  -1.70540667   1.09566158 
H   -0.81857170  -3.45803834   0.46314027 
Pd   1.38171487   0.95406668  -0.20520348 
O    3.53844022   1.50376987  -0.79892615 
O    2.72310294  -0.52678287  -0.60993921 
O    0.31883694   2.66452058   0.29965237 
C   -0.27626257   2.75503409   1.34739512 
O    0.00266364   1.87696815   2.28883327 
H   -0.76708401   1.71514896   2.81749748 
C    3.67572041   0.27121096  -0.87394756 
H    4.64739100  -0.16946342  -1.16586797 
H   -0.92700569   3.58898125   1.53057426 
*
