! EnGrad PBEh-3c
%output 
xyzfile=True 
end 
%scf 
maxiter 250 
end
%output
Print[P_Hirshfeld] = 1
end
% maxcore
4000
*xyz 0 1
C   -1.33737951   0.12539583  -0.83929364 
C   -2.24837103  -0.85527957  -1.13591056 
C   -2.06953743  -2.16032309  -0.68782870 
C   -0.98545099  -2.43108305   0.13986576 
C   -0.21852352  -0.20548746  -0.09964463 
C   -0.07537649  -1.46095699   0.46018915 
H   -1.49176559   1.10585397  -1.24970217 
H   -3.09136568  -0.63954139  -1.78276315 
H   -2.76287216  -2.95989624  -0.98917874 
H    0.75325248  -1.70470223   1.08966047 
H   -0.82150271  -3.44705162   0.46710173 
Pd   1.40707549   0.97832491  -0.20616605 
O    3.53344549   1.50562544  -0.79357903 
O    2.72650560  -0.53168760  -0.61756398 
O    0.31971514   2.65825312   0.28530132 
C   -0.27173373   2.77168184   1.32836463 
O   -0.00713570   1.85118903   2.31079354 
H   -0.76035066   1.72335150   2.82471976 
C    3.67744976   0.26875028  -0.86801119 
H    4.64178093  -0.16632887  -1.16329359 
H   -0.93977704   3.59023948   1.53757485 
*
