! EnGrad PBEh-3c
%output 
xyzfile=True 
end 
%scf 
maxiter 250 
end
%output
Print[P_Hirshfeld] = 1
end
% maxcore
4000
*xyz -1 1
C   -2.66848373  -0.32153589   0.88383838 
C   -2.06444184   0.89014507   1.24620268 
C   -3.95345176  -0.60483832   1.34364520 
C   -4.71554273   0.39003565   1.94083915 
C   -4.09319869   1.55559163   2.35404072 
C   -2.73001297   1.71754771   2.14966362 
H   -2.43869865  -1.29406912  -0.33390060 
H   -4.44963164  -1.53080019   1.07742217 
H   -2.25495500   2.61437780   2.53362783 
H   -5.75569012   0.20344621   2.17862245 
H   -4.65582961   2.29579903   2.90936322 
C   -0.73214702   1.32546376   0.71124978 
C    0.42370388   0.55701781   1.34941532 
H   -0.55994762   2.40061854   0.83641512 
H   -0.76011210   1.21924774  -0.37435899 
C    1.68478989   0.62541770   0.52994660 
H    0.14364484  -0.48788364   1.50564556 
H    0.59296096   0.95841779   2.35458721 
C    1.87091092  -0.17329400  -0.60880352 
C    3.02448820   0.01746483  -1.36558036 
C    3.96375141   0.98401280  -1.02798781 
C    2.73361814   1.43071803   0.97197439 
C    3.80069462   1.72113881   0.13432097 
H    3.19796019  -0.58497399  -2.24810426 
H    4.81812329   1.16035397  -1.67109934 
H    2.60980218   1.99025426   1.89419824 
H    4.48835957   2.52188183   0.37777472 
Pd   0.55969120  -1.54172903  -1.15341494 
Br  -1.15209190  -3.55016433  -1.65875501 
P    1.17450683  -2.95072148   0.37894845 
H    0.24653859  -3.33418474   1.35601250 
C    0.73855491  -0.87671050  -3.98822027 
O    1.68239426  -1.62948708  -4.13414406 
O   -0.13926365  -0.78924870  -3.07895998 
O    0.38909716   0.00609301  -4.96196066 
H    2.26306614  -2.65505328   1.22029250 
H    1.61916942  -4.21808101  -0.02787950 
H    1.09768296  -0.04226355  -5.60485481 
*
