! EnGrad PBEh-3c
%output 
xyzfile=True 
end 
%scf 
maxiter 250 
end
%output
Print[P_Hirshfeld] = 1
end
% maxcore
4000
*xyz -1 1
C   -2.54681414  -0.18071843   0.45350041 
C   -1.95126139   1.01836920   1.26064752 
C   -3.79666869  -0.51073547   0.79159100 
C   -4.73078899   0.39392017   1.36708923 
C   -4.26142802   1.56388693   1.88721744 
C   -2.89922554   1.77170148   1.92873951 
H   -2.17670929  -0.75560102  -0.47509794 
H   -4.13040315  -1.51842525   0.50523445 
H   -2.49950406   2.70269424   2.37593783 
H   -5.78900253   0.20000852   1.20903948 
H   -4.92762052   2.30662524   2.24650864 
C   -0.50973139   1.45666697   1.35803818 
C    0.62577991   0.45002147   1.74621644 
H   -0.47390919   2.22891761   2.09004970 
H   -0.25882225   1.85912423   0.39596091 
C    1.74849285   0.55768295   0.74120263 
H    0.24137792  -0.57688306   1.78583917 
H    1.01585320   0.67392695   2.75627727 
C    1.71418070  -0.14532259  -0.49113355 
C    2.74950012   0.15007178  -1.38955896 
C    3.74046312   1.10220687  -1.11877881 
C    2.83670100   1.39628682   1.05302612 
C    3.77956147   1.75859534   0.10224948 
H    2.81085756  -0.39955391  -2.32141551 
H    4.50310483   1.31395112  -1.86274575 
H    2.93748900   1.82558658   2.05164835 
H    4.56710102   2.48512515   0.33296337 
Pd   0.27144040  -1.62097707  -0.98579606 
Br  -1.42034034  -3.65092560  -0.79471150 
P    1.41977604  -3.01502760   0.23061763 
H    0.86190834  -3.57360029   1.36449733 
C    0.47579144  -1.22543494  -3.92490547 
O    1.50184779  -1.64080723  -4.20501009 
O   -0.42371730  -1.70385344  -3.08810542 
O   -0.04860494  -0.09123927  -4.49507093 
H    2.71269772  -2.74417917   0.65892532 
H    1.65085324  -4.12843763  -0.56115352 
H    0.67687538   0.26136690  -4.97815188 
*
