! EnGrad PBEh-3c
%output 
xyzfile=True 
end 
%scf 
maxiter 250 
end
%output
Print[P_Hirshfeld] = 1
end
% maxcore
4000
*xyz -1 1
C   -2.51156807  -0.16511566   0.48559299 
C   -1.96784594   0.98616023   1.23601407 
C   -3.81736722  -0.52332633   0.80900756 
C   -4.72133569   0.37937564   1.36807332 
C   -4.25038680   1.56213703   1.88884939 
C   -2.87608817   1.78940742   1.92517624 
H   -2.15162051  -0.78356124  -0.43008068 
H   -4.14319512  -1.49758316   0.49013131 
H   -2.49731479   2.70891488   2.37478693 
H   -5.78953920   0.18778604   1.26491666 
H   -4.92535052   2.31333152   2.27397693 
C   -0.52409536   1.42570745   1.33607069 
C    0.61032054   0.44890754   1.73109350 
H   -0.48241382   2.23748126   2.06251475 
H   -0.25478671   1.85993568   0.38435260 
C    1.74498782   0.55015377   0.73915491 
H    0.23966279  -0.57388954   1.78069301 
H    0.99848621   0.67561809   2.73352652 
C    1.71625318  -0.14619012  -0.49462299 
C    2.75486866   0.14069755  -1.38603517 
C    3.73566052   1.09886972  -1.12022874 
C    2.82205669   1.39515830   1.04571163 
C    3.77730635   1.74493517   0.10250901 
H    2.81369444  -0.40139715  -2.32216558 
H    4.50557124   1.30336877  -1.85518723 
H    2.91068909   1.83606154   2.03569956 
H    4.55500485   2.47362155   0.33000976 
Pd   0.29643051  -1.60387251  -0.98460467 
Br  -1.41254224  -3.62901669  -0.82078026 
P    1.40259057  -3.00423663   0.22586105 
H    0.84817473  -3.57220210   1.36771829 
C    0.41108886  -1.19286287  -3.89720460 
O    1.56967024  -1.66515277  -4.22236024 
O   -0.40030906  -1.66100180  -3.07194258 
O   -0.04014036  -0.08517638  -4.50666140 
H    2.70266427  -2.73531533   0.66959667 
H    1.64806170  -4.13811003  -0.54532903 
H    0.70000390   0.25375972  -5.00402188 
*
