! EnGrad PBEh-3c
%output 
xyzfile=True 
end 
%scf 
maxiter 250 
end
%output
Print[P_Hirshfeld] = 1
end
% maxcore
4000
*xyz -1 1
C   -2.46703173  -0.13246163   0.51655355 
C   -1.97720171   0.93640076   1.20277572 
C   -3.80690621  -0.50927316   0.77168772 
C   -4.70363827   0.36293811   1.32916008 
C   -4.23995476   1.57152123   1.85801509 
C   -2.87508089   1.79769408   1.88292502 
H   -2.09125034  -0.77225293  -0.35159570 
H   -4.13758334  -1.47883151   0.42021538 
H   -2.51376124   2.71899605   2.36382935 
H   -5.78029257   0.16777347   1.27225771 
H   -4.93984033   2.31758083   2.25394911 
C   -0.52085030   1.40881692   1.35796120 
C    0.61223865   0.43183027   1.73909836 
H   -0.49176546   2.23195789   2.11437890 
H   -0.21314914   1.91526395   0.42670177 
C    1.74609368   0.52824196   0.75169165 
H    0.23895894  -0.58173859   1.79467826 
H    1.00155358   0.66048324   2.73611614 
C    1.70432279  -0.14442193  -0.49175512 
C    2.73827373   0.13629522  -1.38790227 
C    3.71486193   1.09695967  -1.12824436 
C    2.80450832   1.39820678   1.04141808 
C    3.76907324   1.72281684   0.10085149 
H    2.78266617  -0.39115268  -2.32978602 
H    4.48166114   1.30108599  -1.86459043 
H    2.89256571   1.83995590   2.03027921 
H    4.54246181   2.45254194   0.32294155 
Pd   0.30384379  -1.58357532  -0.96293796 
Br  -1.42744589  -3.59890587  -0.79248490 
P    1.40158909  -2.99531543   0.20835863 
H    0.87693053  -3.58589040   1.37088317 
C    0.44442268  -1.23129482  -3.89912868 
O    1.52479811  -1.64278840  -4.21873560 
O   -0.40831549  -1.67395058  -3.03070857 
O   -0.05701518  -0.07438002  -4.48979253 
H    2.72307505  -2.73016293   0.63912522 
H    1.64630063  -4.14549595  -0.56644884 
H    0.69841346   0.26373349  -4.99422699 
*
