! EnGrad PBEh-3c
%output 
xyzfile=True 
end 
%scf 
maxiter 250 
end
%output
Print[P_Hirshfeld] = 1
end
% maxcore
4000
*xyz -1 1
C   -2.45129455  -0.15004134   0.49404634 
C   -1.94092982   0.96568194   1.21888095 
C   -3.77756682  -0.49155199   0.69192639 
C   -4.69785680   0.36851253   1.26743966 
C   -4.24873940   1.57899139   1.79785616 
C   -2.89309974   1.80512991   1.83248864 
H   -2.00685933  -0.73306015  -0.28089710 
H   -4.10633559  -1.45751685   0.31906979 
H   -2.54256865   2.72070349   2.33854404 
H   -5.76184501   0.14602721   1.22165290 
H   -4.95846538   2.31170565   2.18705956 
C   -0.49912639   1.42886566   1.41076414 
C    0.62917491   0.41001570   1.77049707 
H   -0.50108346   2.19779767   2.22672301 
H   -0.15095653   1.99883049   0.52333649 
C    1.74750975   0.50726916   0.77053811 
H    0.23929242  -0.60246632   1.82493611 
H    1.02796612   0.63144981   2.76659625 
C    1.68620597  -0.14549774  -0.48021157 
C    2.70129642   0.14304695  -1.39391096 
C    3.68480142   1.09509061  -1.14047320 
C    2.79545775   1.39514070   1.04601258 
C    3.75599310   1.70699801   0.09680408 
H    2.72751223  -0.37212278  -2.34341679 
H    4.43848881   1.30842241  -1.88781858 
H    2.89126415   1.83556440   2.03528518 
H    4.53629202   2.42961185   0.31446300 
Pd   0.28306857  -1.56767936  -0.93528913 
Br  -1.46188981  -3.57125789  -0.71436467 
P    1.42695223  -3.00400295   0.19316894 
H    0.94383084  -3.60883362   1.36825103 
C    0.38177767  -1.24861827  -3.87097858 
O    1.51955935  -1.64701573  -4.23292068 
O   -0.41177499  -1.73333725  -3.01115150 
O   -0.07658955  -0.08369377  -4.44468314 
H    2.76410863  -2.73191697   0.57343604 
H    1.64498989  -4.14090697  -0.61634236 
H    0.65866591   0.28792068  -4.94212590 
*
