! EnGrad PBEh-3c
%output 
xyzfile=True 
end 
%scf 
maxiter 250 
end
%output
Print[P_Hirshfeld] = 1
end
% maxcore
4000
*xyz -1 1
C   -2.44929632  -0.14610117   0.49800573 
C   -1.93691395   0.96792792   1.22059899 
C   -3.77573416  -0.48934001   0.67756311 
C   -4.69609256   0.37034596   1.25972782 
C   -4.25190870   1.57801069   1.78890396 
C   -2.89223373   1.80720194   1.82573845 
H   -1.99092189  -0.72969867  -0.27002217 
H   -4.10156024  -1.45406323   0.30490163 
H   -2.54729381   2.71756048   2.33512430 
H   -5.75705041   0.14270307   1.21522949 
H   -4.96047205   2.31074742   2.17709997 
C   -0.49412609   1.43408658   1.41781730 
C    0.63129787   0.40692740   1.77435784 
H   -0.50288169   2.19216234   2.23970416 
H   -0.14432081   2.00930110   0.53715997 
C    1.74822059   0.50373677   0.77269405 
H    0.23794773  -0.60574035   1.82869140 
H    1.03029574   0.62832459   2.77077874 
C    1.68367476  -0.14587834  -0.47928404 
C    2.69569519   0.14400244  -1.39554957 
C    3.68141551   1.09346536  -1.14179174 
C    2.79350122   1.39530474   1.04659494 
C    3.75399928   1.70431235   0.09630800 
H    2.71905195  -0.37005271  -2.34592843 
H    4.43196775   1.30950858  -1.89188848 
H    2.88971820   1.83509184   2.03632559 
H    4.53504375   2.42573961   0.31347851 
Pd   0.27910925  -1.56695314  -0.93132630 
Br  -1.46716966  -3.56592842  -0.70363587 
P    1.43129759  -3.00591708   0.19146941 
H    0.95340269  -3.61151225   1.36755739 
C    0.38374193  -1.25296141  -3.86942897 
O    1.50864832  -1.64417961  -4.23151443 
O   -0.41168988  -1.73972049  -3.00888944 
O   -0.07953686  -0.08477162  -4.43788644 
H    2.76958129  -2.73244831   0.56469620 
H    1.64502064  -4.13988247  -0.62267297 
H    0.65350416   0.29089914  -4.93586746 
*
