! EnGrad PBEh-3c
%output 
xyzfile=True 
end 
%scf 
maxiter 250 
end
%output
Print[P_Hirshfeld] = 1
end
% maxcore
4000
*xyz -1 1
C   -2.64818351  -0.21347386   0.63106844 
C   -2.01095038   0.83932145   1.23583782 
C   -3.89227278  -0.53922067   0.98089824 
C   -4.68380985   0.34808314   1.65369665 
C   -4.16769508   1.55782644   2.15607073 
C   -2.82165541   1.70317299   2.01043997 
H   -2.40374705  -0.85561143  -0.38416262 
H   -4.27554549  -1.56466640   0.87974647 
H   -2.39749817   2.61560870   2.51941034 
H   -5.76990305   0.24862394   1.58153718 
H   -4.84491143   2.34496221   2.55124812 
C   -0.60037145   1.36960187   1.04335457 
C    0.56324619   0.50213929   1.56460624 
H   -0.48323991   2.40115458   1.50386833 
H   -0.54814845   1.53429062  -0.03588826 
C    1.78033185   0.55595079   0.67190330 
H    0.18239181  -0.51252699   1.63611513 
H    0.80776423   0.83610370   2.57594095 
C    1.77449664  -0.12125915  -0.57458035 
C    2.90688213   0.09001491  -1.38025621 
C    3.87303979   1.05273150  -1.06776531 
C    2.77241080   1.48331480   1.00051974 
C    3.83042942   1.73129819   0.12986570 
H    3.01174767  -0.49567419  -2.27911809 
H    4.66045805   1.26583101  -1.79032034 
H    2.82622611   1.87060639   2.02120994 
H    4.53708344   2.51970904   0.36426669 
Pd   0.34879218  -1.65125322  -1.12854966 
Br  -1.28788963  -3.65241772  -1.18461797 
P    1.29731168  -2.96071084   0.29459675 
H    0.55950884  -3.46113940   1.37974857 
C    0.46253394  -1.06583614  -3.91253072 
O    1.66989779  -1.63973292  -4.18447902 
O   -0.28075769  -1.35892703  -3.06697551 
O    0.18641526  -0.03796429  -4.73848122 
H    2.53056195  -2.72062941   0.96358226 
H    1.65972069  -4.18236949  -0.32228160 
H    0.87164804   0.16976396  -5.29846459 
*
