! EnGrad PBEh-3c
%output 
xyzfile=True 
end 
%scf 
maxiter 250 
end
%output
Print[P_Hirshfeld] = 1
end
% maxcore
4000
*xyz -1 1
C   -2.59732062  -0.13915621   0.58065598 
C   -2.00646449   0.86023392   1.22802602 
C   -3.90508264  -0.52923139   0.88584918 
C   -4.68719844   0.34987297   1.55782451 
C   -4.20172558   1.54979227   2.07012810 
C   -2.83219376   1.71138255   1.97788206 
H   -2.36669764  -0.76585857  -0.43338005 
H   -4.21941728  -1.56967126   0.78818636 
H   -2.44611113   2.61325718   2.48576160 
H   -5.76740739   0.25050159   1.39760044 
H   -4.89871031   2.35101392   2.43159697 
C   -0.55728238   1.38714933   1.15995090 
C    0.60327866   0.47942189   1.63874705 
H   -0.46561254   2.38055199   1.73479568 
H   -0.46345372   1.64587660   0.08674758 
C    1.79083031   0.54804055   0.70187931 
H    0.19872062  -0.52869039   1.68478869 
H    0.88423302   0.78936726   2.65447621 
C    1.74570415  -0.12062699  -0.55977360 
C    2.85461296   0.11673130  -1.38493345 
C    3.84032145   1.07000421  -1.08483646 
C    2.79751683   1.47649991   1.02011724 
C    3.82597008   1.74515831   0.12498301 
H    2.94509868  -0.46406818  -2.29202404 
H    4.60696054   1.29607532  -1.82674948 
H    2.89030905   1.84067194   2.05648323 
H    4.55451575   2.51725868   0.35802502 
Pd   0.30677611  -1.67881833  -1.07739261 
Br  -1.33680396  -3.67927793  -1.02974257 
P    1.33562238  -2.96725114   0.26395359 
H    0.66630493  -3.50430081   1.38561741 
C    0.50341805  -1.14922633  -3.94697665 
O    1.60295521  -1.62300767  -4.19211760 
O   -0.38404930  -1.52626974  -3.05083011 
O    0.07612421  -0.05733915  -4.63803370 
H    2.61527108  -2.73883465   0.86661733 
H    1.66751287  -4.16619447  -0.41976675 
H    0.81777634   0.23222342  -5.20154248 
*
