! EnGrad PBEh-3c
%output 
xyzfile=True 
end 
%scf 
maxiter 250 
end
%output
Print[P_Hirshfeld] = 1
end
% maxcore
4000
*xyz 0 1
Pd   0.38225316   0.25459599  -0.29642301 
O    1.96104563   1.40283840   0.66492375 
C    1.73137974   2.56455378   0.32476629 
O    0.59108174   2.86385146  -0.18872411 
C    2.70678882   3.66025211   0.60293997 
H    2.24185376   4.54951763   1.02653302 
H    3.16245430   3.95888964  -0.34366881 
H    3.50041619   3.32901329   1.26689619 
N   -1.36331515  -0.71285840  -1.00822987 
C   -1.23079296  -1.78905148  -2.01339791 
H   -0.75512880  -1.47978020  -2.93706981 
H   -2.18794353  -2.17921636  -2.39916935 
H   -0.64562849  -2.60549737  -1.60380405 
C   -2.11923155   0.32230980  -1.73130459 
H   -2.26586035   1.19362927  -1.10525968 
H   -3.11174494  -0.01190929  -2.06090548 
H   -1.59527093   0.66652305  -2.61684974 
C   -1.54055013  -1.08880376   1.41626628 
C   -1.13057902  -2.13291273   2.23836888 
C   -1.00379601  -1.98404907   3.61405200 
C   -1.04700107  -0.71797639   4.16313074 
C   -1.47152966   0.33926090   3.37179072 
C   -1.65973200   0.16768900   2.00982777 
H   -0.89403918  -0.59045170   5.22551306 
H   -1.67063517   1.26104224   3.90077723 
H   -1.26504265  -3.15658421   1.90780087 
H   -0.87646793  -2.84956274   4.25214765 
H   -2.03714492   3.46983809   1.39494788 
C   -2.19882561  -1.27191359   0.08118606 
H   -3.20283129  -0.82732061   0.15153246 
H   -2.45775039  -2.33519711  -0.00389922 
O    1.88758450  -0.46815930  -1.26054498 
C    2.28425122  -0.38552433  -2.46711433 
O    1.45002211  -0.36700998  -3.34570509 
C    3.67226851  -0.69844512  -2.96979348 
H    3.79079626  -1.76057472  -3.18239846 
H    4.43276857  -0.45834133  -2.22025202 
H    3.93587208  -0.13266488  -3.85887199 
*
