! EnGrad PBEh-3c
%output 
xyzfile=True 
end 
%scf 
maxiter 250 
end
%output
Print[P_Hirshfeld] = 1
end
% maxcore
4000
*xyz 0 1
Pd   0.46035116   0.26595549  -0.13618786 
O    1.83434201   1.37158364   0.62403687 
C    1.62778316   2.58203430   0.33226287 
O    0.59472221   2.95506770  -0.23513483 
C    2.72069121   3.57733793   0.63567659 
H    2.29348734   4.49657936   1.03897919 
H    3.20145318   3.90880832  -0.30207927 
H    3.54023672   3.25734857   1.29037409 
N   -1.37335404  -0.75894149  -1.03028179 
C   -1.17283944  -1.94894759  -1.92411434 
H   -0.49931172  -1.61731966  -2.74861387 
H   -2.17956644  -2.35500274  -2.17985674 
H   -0.65888574  -2.74867351  -1.36153805 
C   -2.06286036   0.28542726  -1.83334497 
H   -2.18504753   1.20188792  -1.21077485 
H   -3.06093623  -0.07651899  -2.15001067 
H   -1.43442054   0.48247065  -2.70482008 
C   -1.70633063  -1.01708774   1.51245300 
C   -1.62278518  -2.15139295   2.31593008 
C   -1.19456719  -2.00912832   3.63935221 
C   -1.08348051  -0.72402784   4.20772334 
C   -1.21427213   0.44545726   3.46042260 
C   -1.39989720   0.23053007   2.10104343 
H   -0.87258709  -0.60687119   5.25901972 
H   -1.23805255   1.48713559   3.83612199 
H   -1.72727107  -3.15744584   1.85444620 
H   -1.11869989  -2.87015031   4.29491556 
H   -1.76882487   3.04464436   1.29351654 
C   -2.25043851  -1.14717727   0.07969739 
H   -3.12973244  -0.50060547   0.06572402 
H   -2.51915146  -2.20576059  -0.08245506 
O    2.20141885  -0.34305092  -1.29114894 
C    2.09431134  -0.63398503  -2.65527510 
O    1.30014950  -0.89936511  -3.37404855 
C    3.64326484  -0.48786275  -3.02314321 
H    3.99684311  -1.41310823  -3.45637095 
H    4.43900747  -0.12546801  -2.26096798 
H    3.55887753   0.18959506  -3.85103474 
*
