! EnGrad PBEh-3c
%output 
xyzfile=True 
end 
%scf 
maxiter 250 
end
%output
Print[P_Hirshfeld] = 1
end
% maxcore
4000
*xyz 0 1
Pd   0.44816855   0.23240732  -0.17720128 
O    1.84627856   1.38888790   0.64532860 
C    1.65666348   2.60221734   0.31958879 
O    0.58753217   2.94836961  -0.23108752 
C    2.71722454   3.58431634   0.63486268 
H    2.29144853   4.49702131   1.03970482 
H    3.19227705   3.90263511  -0.30072433 
H    3.52798840   3.25474052   1.28606171 
N   -1.34550162  -0.74242100  -1.01139069 
C   -1.17389843  -1.92451474  -1.91154233 
H   -0.52556955  -1.62090231  -2.75255217 
H   -2.16190165  -2.34677914  -2.20312981 
H   -0.65698650  -2.73137505  -1.37939225 
C   -2.05611981   0.27658669  -1.82412927 
H   -2.18903471   1.19115304  -1.21305213 
H   -3.05885084  -0.06583545  -2.14711417 
H   -1.45175669   0.49874347  -2.69666229 
C   -1.68869950  -1.01848825   1.49958524 
C   -1.57136580  -2.13771000   2.30374798 
C   -1.21120436  -1.99773084   3.64392506 
C   -1.07024757  -0.71431746   4.20450741 
C   -1.23346281   0.43870684   3.44674159 
C   -1.43540228   0.23166495   2.08162865 
H   -0.87717030  -0.61111854   5.26539648 
H   -1.25322120   1.46791344   3.84555780 
H   -1.70936002  -3.14485393   1.86088296 
H   -1.09609967  -2.86914706   4.29087343 
H   -1.77847747   3.01603013   1.30287790 
C   -2.24748241  -1.14660441   0.08435550 
H   -3.14130207  -0.52444009   0.06319144 
H   -2.51710879  -2.20431129  -0.07063829 
O    2.13883261  -0.41067105  -1.29888353 
C    2.18329930  -0.57583571  -2.58542660 
O    1.27062837  -0.81949864  -3.39469335 
C    3.62619809  -0.51464034  -3.04399445 
H    3.99775424  -1.43770735  -3.44171291 
H    4.41601195  -0.16031575  -2.25988471 
H    3.58550365   0.17080594  -3.84461775 
*
