! EnGrad PBEh-3c
%output 
xyzfile=True 
end 
%scf 
maxiter 250 
end
%output
Print[P_Hirshfeld] = 1
end
% maxcore
4000
*xyz 0 1
Pd   0.45176982   0.21413458  -0.19352624 
O    1.84241254   1.39586941   0.65596193 
C    1.65252369   2.60828887   0.30935120 
O    0.58903032   2.95319344  -0.23164297 
C    2.72227461   3.58796784   0.63523495 
H    2.29372592   4.49350938   1.04257209 
H    3.18894271   3.89295739  -0.29575506 
H    3.52114196   3.24406292   1.28550038 
N   -1.32865650  -0.73850171  -1.00384377 
C   -1.16446949  -1.92276745  -1.89367225 
H   -0.52352672  -1.63732683  -2.73640326 
H   -2.14565618  -2.35358113  -2.20026856 
H   -0.65596288  -2.73050948  -1.36928318 
C   -2.04545863   0.27249472  -1.82243616 
H   -2.18407481   1.18148149  -1.22734126 
H   -3.04987495  -0.06496240  -2.15229822 
H   -1.44879646   0.49475551  -2.70026838 
C   -1.69408891  -1.00187440   1.49153916 
C   -1.57624130  -2.13650399   2.30663803 
C   -1.24014105  -1.98887869   3.65120005 
C   -1.06591759  -0.71255675   4.20788953 
C   -1.22427811   0.44852604   3.43571089 
C   -1.43886850   0.24176186   2.08066777 
H   -0.87842717  -0.61583507   5.27277888 
H   -1.22246957   1.46990983   3.84626631 
H   -1.73873023  -3.13106697   1.86244353 
H   -1.10220467  -2.86794664   4.28943289 
H   -1.75915678   2.94215902   1.30157752 
C   -2.24691700  -1.13684631   0.09302454 
H   -3.14406687  -0.51237669   0.05262558 
H   -2.52192834  -2.18827594  -0.06857925 
O    2.11590731  -0.44896739  -1.30309054 
C    2.21114744  -0.56942254  -2.56186980 
O    1.25049135  -0.79636226  -3.39931176 
C    3.62394581  -0.50899401  -3.04655745 
H    4.01700507  -1.43042324  -3.45870371 
H    4.38700866  -0.15995793  -2.27304912 
H    3.57302448   0.19369752  -3.84807844 
*
