! EnGrad PBEh-3c
%output 
xyzfile=True 
end 
%scf 
maxiter 250 
end
%output
Print[P_Hirshfeld] = 1
end
% maxcore
4000
*xyz 0 1
Pd   0.48627933   0.18538054  -0.23557222 
O    1.83014304   1.37174345   0.67571776 
C    1.60607293   2.62075975   0.29735859 
O    0.59979534   2.98208194  -0.25410345 
C    2.73419213   3.59703193   0.63399515 
H    2.29971102   4.49532865   1.06010214 
H    3.19282375   3.87027616  -0.29818880 
H    3.49836298   3.19791928   1.28987253 
N   -1.30354545  -0.74700421  -1.00559627 
C   -1.12490688  -1.93705251  -1.83771474 
H   -0.51251955  -1.69299065  -2.68032566 
H   -2.07546965  -2.35845932  -2.18335819 
H   -0.63821900  -2.73043027  -1.30988557 
C   -2.00300437   0.26257371  -1.82858664 
H   -2.16340773   1.16157015  -1.27385741 
H   -2.99667442  -0.07498880  -2.16141309 
H   -1.42963392   0.47927456  -2.71860061 
C   -1.71275184  -0.93669252   1.48972897 
C   -1.60012481  -2.10135160   2.31653344 
C   -1.31493885  -1.95723442   3.67075347 
C   -1.07229601  -0.69956939   4.21071741 
C   -1.18571483   0.47198186   3.40678423 
C   -1.46728913   0.30399107   2.07844273 
H   -0.87896592  -0.63015910   5.28722494 
H   -1.10501003   1.45694899   3.84564488 
H   -1.85146023  -3.07006925   1.87912611 
H   -1.14475682  -2.84844953   4.28016108 
H   -1.68133816   2.60258702   1.30394566 
C   -2.24526759  -1.09648889   0.12093864 
H   -3.14454641  -0.47518740   0.01593673 
H   -2.54651698  -2.12248573  -0.05516447 
O    2.04271260  -0.60943542  -1.26468592 
C    2.20238007  -0.59252441  -2.53062223 
O    1.23597637  -0.64060649  -3.40222730 
C    3.63686296  -0.48133015  -3.06872541 
H    4.07127372  -1.39690260  -3.52148027 
H    4.28334297  -0.16005705  -2.31891427 
H    3.53872751   0.27517037  -3.86425768 
*
