! EnGrad PBEh-3c
%output 
xyzfile=True 
end 
%scf 
maxiter 250 
end
%output
Print[P_Hirshfeld] = 1
end
% maxcore
4000
*xyz 0 1
Pd   0.51928116   0.20453934  -0.24536578 
O    1.81197015   1.34771249   0.64806411 
C    1.57788717   2.59694070   0.32278276 
O    0.60647525   3.00393417  -0.29102754 
C    2.72110108   3.58707546   0.63595453 
H    2.30974734   4.50710112   1.07855612 
H    3.21209396   3.86486090  -0.31802133 
H    3.47825733   3.15582742   1.29779231 
N   -1.31190920  -0.76089292  -1.01461373 
C   -1.08726171  -1.97162286  -1.80021025 
H   -0.48413272  -1.73149142  -2.65161345 
H   -2.02439336  -2.35123317  -2.16756656 
H   -0.59855494  -2.74249421  -1.22043077 
C   -1.96273108   0.25127987  -1.85428470 
H   -2.13823407   1.17132556  -1.30070085 
H   -2.93887404  -0.10509793  -2.16312108 
H   -1.39340791   0.46515614  -2.74605090 
C   -1.73277299  -0.87464364   1.51521485 
C   -1.64042471  -2.02955817   2.32153225 
C   -1.33180111  -1.92810947   3.66767882 
C   -1.09955552  -0.67811781   4.20906820 
C   -1.15378784   0.46911924   3.41044938 
C   -1.50540462   0.41844834   2.06634170 
H   -0.87331414  -0.63204549   5.27227343 
H   -0.99891500   1.43231672   3.84869853 
H   -1.94830127  -2.99537577   1.90945413 
H   -1.21399734  -2.81574084   4.27279869 
H   -1.60474257   2.16810381   1.33157665 
C   -2.24318742  -1.05347194   0.11682678 
H   -3.13374632  -0.44653259  -0.00789523 
H   -2.58117195  -2.07151813  -0.03087832 
O    2.00313373  -0.79090975  -1.23671332 
C    2.11072444  -0.62189958  -2.55936024 
O    1.28044645  -0.43290966  -3.36945056 
C    3.59448451  -0.47159135  -3.11975690 
H    4.08475984  -1.35298257  -3.57085644 
H    4.24268122  -0.14263916  -2.31569642 
H    3.52975360   0.33023388  -3.87353404 
*
