! EnGrad PBEh-3c
%output 
xyzfile=True 
end 
%scf 
maxiter 250 
end
%output
Print[P_Hirshfeld] = 1
end
% maxcore
4000
*xyz 0 1
Pd   0.39810838   0.29155031  -0.24346768 
O    1.97019147   1.29213229   0.65693782 
C    1.58601392   2.65554490   0.29113044 
O    0.67151530   2.85217032  -0.16648267 
C    2.73638991   3.65814783   0.60309520 
H    2.24492342   4.54332525   1.02791258 
H    3.17236646   3.95885613  -0.33825979 
H    3.51034805   3.32436571   1.27071677 
N   -1.39385678  -0.74454768  -1.07170104 
C   -1.21065894  -1.83457091  -2.01706787 
H   -0.72180405  -1.49437508  -2.90257971 
H   -2.18808324  -2.19207390  -2.35392717 
H   -0.65208968  -2.62344588  -1.56509434 
C   -2.12075400   0.34582556  -1.74213366 
H   -2.25321022   1.19538008  -1.12221323 
H   -3.09487436  -0.03273222  -2.06716030 
H   -1.56614929   0.63122330  -2.63090571 
C   -1.56858781  -1.03862219   1.41906093 
C   -1.21374650  -2.17165870   2.27168163 
C   -1.00441752  -1.98209471   3.60746603 
C   -1.06353316  -0.74509959   4.16538078 
C   -1.43953443   0.37472118   3.36000988 
C   -1.61441979   0.15621440   2.05297978 
H   -0.88600957  -0.58997241   5.22758273 
H   -1.61269432   1.27281820   3.88239015 
H   -1.33123668  -3.15155694   1.90839821 
H   -0.92706453  -2.84940065   4.26059843 
H   -2.00099165   3.44571157   1.37716528 
C   -2.21164146  -1.27385841   0.12343274 
H   -3.18461837  -0.77854891   0.14278457 
H   -2.46957862  -2.31239635  -0.02211347 
O    1.94879319  -0.41925686  -1.24689193 
C    2.21033615  -0.46477557  -2.53571156 
O    1.45726981  -0.45404450  -3.33687495 
C    3.71416907  -0.64374464  -2.92994347 
H    3.80891709  -1.70622343  -3.22807279 
H    4.42649587  -0.41237542  -2.24815242 
H    3.87666105  -0.08285872  -3.87621225 
*
