! EnGrad PBEh-3c
%output 
xyzfile=True 
end 
%scf 
maxiter 250 
end
%output
Print[P_Hirshfeld] = 1
end
% maxcore
4000
*xyz 0 1
Pd   0.50664635   0.20484715  -0.24606856 
O    1.81229628   1.35775955   0.64116974 
C    1.59048386   2.59878681   0.31987913 
O    0.60515480   2.99336192  -0.28563387 
C    2.71616600   3.58220116   0.63661725 
H    2.31125493   4.50430154   1.07663442 
H    3.20904593   3.86404140  -0.31425500 
H    3.47575588   3.15814923   1.29636239 
N   -1.30647019  -0.75427899  -1.00755736 
C   -1.08638590  -1.97000869  -1.80193017 
H   -0.48038287  -1.72803038  -2.65927526 
H   -2.03308832  -2.35235260  -2.17155066 
H   -0.59530830  -2.74245786  -1.21863396 
C   -1.96364165   0.25352684  -1.85521205 
H   -2.13653955   1.17384952  -1.29737681 
H   -2.94331415  -0.10753872  -2.16414159 
H   -1.38991995   0.46808680  -2.74701964 
C   -1.73244450  -0.86888049   1.51079875 
C   -1.64115026  -2.01940651   2.31761006 
C   -1.32319171  -1.92674638   3.66246542 
C   -1.09876232  -0.67592268   4.20819202 
C   -1.16008134   0.46878567   3.41117696 
C   -1.50537997   0.43495043   2.05932777 
H   -0.87322573  -0.62702211   5.26736270 
H   -1.00077900   1.43340323   3.85279580 
H   -1.93768892  -2.99021372   1.90998205 
H   -1.21467961  -2.81490021   4.27278205 
H   -1.60432154   2.11802119   1.34739255 
C   -2.24215663  -1.05474290   0.11160395 
H   -3.13533217  -0.44773334  -0.00635305 
H   -2.58181229  -2.07743283  -0.02710358 
O    1.99936276  -0.78809140  -1.25577997 
C    2.12942041  -0.62081209  -2.55592490 
O    1.26911449  -0.42180941  -3.36325684 
C    3.58596494  -0.47548294  -3.11216026 
H    4.07264578  -1.35334432  -3.56472444 
H    4.24902586  -0.14367781  -2.31058055 
H    3.53627217   0.31998220  -3.86988254 
*
