! EnGrad PBEh-3c
%output 
xyzfile=True 
end 
%scf 
maxiter 250 
end
%output
Print[P_Hirshfeld] = 1
end
% maxcore
4000
*xyz 0 1
Pd   0.48161449   0.21454717  -0.24882004 
O    1.81399492   1.36501163   0.61826996 
C    1.60668394   2.59994663   0.31411167 
O    0.60220229   2.97104492  -0.27875074 
C    2.70682657   3.57291716   0.63661917 
H    2.31589724   4.49826947   1.07495987 
H    3.20374451   3.86039128  -0.30640003 
H    3.46586890   3.15567115   1.29501908 
N   -1.29598362  -0.74465328  -1.00063314 
C   -1.07637366  -1.97337467  -1.80298004 
H   -0.46698298  -1.72631456  -2.67096241 
H   -2.04311021  -2.35058300  -2.17602091 
H   -0.58080040  -2.74254116  -1.19880654 
C   -1.95928548   0.26121895  -1.86116681 
H   -2.12710850   1.18158612  -1.29509797 
H   -2.94183525  -0.11957143  -2.16632557 
H   -1.37329047   0.47311348  -2.75362974 
C   -1.73653973  -0.82995588   1.50069980 
C   -1.64946300  -1.98187018   2.31075434 
C   -1.30280945  -1.91534428   3.64905264 
C   -1.10258396  -0.67035852   4.20196540 
C   -1.17075348   0.47722324   3.40647301 
C   -1.51098315   0.50219060   2.03903120 
H   -0.87111417  -0.61213115   5.25313315 
H   -0.98596010   1.42972793   3.86449644 
H   -1.92556936  -2.96080026   1.91578191 
H   -1.22987038  -2.80521337   4.26899608 
H   -1.58722526   1.88052096   1.40250714 
C   -2.24095899  -1.05212253   0.10355303 
H   -3.13725273  -0.44549450  -0.00730696 
H   -2.58881564  -2.08174398  -0.01287884 
O    1.98233875  -0.80658049  -1.29095904 
C    2.15002642  -0.61752273  -2.55794800 
O    1.24913117  -0.36665747  -3.34051843 
C    3.57084675  -0.47758590  -3.09119304 
H    4.04006612  -1.34891428  -3.55730016 
H    4.25176699  -0.14535727  -2.30361958 
H    3.55141130   0.30416756  -3.86393106 
*
