! EnGrad PBEh-3c
%output 
xyzfile=True 
end 
%scf 
maxiter 250 
end
%output
Print[P_Hirshfeld] = 1
end
% maxcore
4000
*xyz 0 1
Pd   0.43811750   0.22686628  -0.26372406 
O    1.84911697   1.34356180   0.58928612 
C    1.60451295   2.58317434   0.28868874 
O    0.56786845   2.93487369  -0.25176986 
C    2.70903762   3.57529600   0.63461929 
H    2.30637559   4.48431636   1.06658076 
H    3.18842210   3.85659315  -0.29259711 
H    3.45923648   3.15995163   1.29644811 
N   -1.29334449  -0.73576223  -1.02083696 
C   -1.08105878  -1.95511340  -1.82986547 
H   -0.46841734  -1.70982521  -2.69007086 
H   -2.05206106  -2.33243267  -2.17882366 
H   -0.58512600  -2.71448110  -1.22773578 
C   -1.96461972   0.27603184  -1.86102192 
H   -2.12404362   1.19084855  -1.28647344 
H   -2.94503082  -0.11180335  -2.16716308 
H   -1.36594341   0.49743221  -2.73886496 
C   -1.72882911  -0.76304408   1.48026258 
C   -1.61286511  -1.92556184   2.28340569 
C   -1.27911277  -1.88942933   3.62390498 
C   -1.08562448  -0.63263382   4.16322274 
C   -1.19683900   0.52498828   3.36974873 
C   -1.49844313   0.46147496   2.04936599 
H   -0.87036210  -0.56617622   5.23194442 
H   -1.00669662   1.44481171   3.89388844 
H   -1.84313652  -2.91770978   1.89188033 
H   -1.21542948  -2.79043502   4.24168084 
H   -1.58533443   1.52376408   1.51697393 
C   -2.24646045  -1.05191601   0.10453251 
H   -3.15275872  -0.46081220  -0.01250408 
H   -2.56975142  -2.09828513   0.00934228 
O    1.96571383  -0.73667803  -1.26639196 
C    2.13301181  -0.54617378  -2.55644978 
O    1.21740839  -0.40540054  -3.34380768 
C    3.59639525  -0.47119925  -3.05145443 
H    3.96524135  -1.39184370  -3.50670036 
H    4.27271851  -0.16044792  -2.27723988 
H    3.58919824   0.25319793  -3.84862773 
*
