! EnGrad PBEh-3c
%output 
xyzfile=True 
end 
%scf 
maxiter 250 
end
%output
Print[P_Hirshfeld] = 1
end
% maxcore
4000
*xyz 0 1
Pd   0.43827603   0.23224686  -0.26703140 
O    1.85576027   1.33467389   0.57590336 
C    1.60553377   2.57164350   0.29157506 
O    0.55320506   2.92842968  -0.24837006 
C    2.70389292   3.57061363   0.63322609 
H    2.30103225   4.48368028   1.06648789 
H    3.18929569   3.85781303  -0.29537398 
H    3.45870193   3.15815733   1.29868173 
N   -1.30053510  -0.73609424  -1.02783702 
C   -1.08239218  -1.94999874  -1.83536681 
H   -0.46849617  -1.70696332  -2.69290513 
H   -2.04990515  -2.32683342  -2.17763918 
H   -0.58622917  -2.70670406  -1.23483217 
C   -1.96445418   0.27924606  -1.86169967 
H   -2.12318173   1.19329682  -1.28661824 
H   -2.94190379  -0.10788591  -2.16827105 
H   -1.36334138   0.50381655  -2.73580477 
C   -1.72840983  -0.77813034   1.47621032 
C   -1.60346672  -1.91482947   2.27651684 
C   -1.27547197  -1.87450850   3.61588903 
C   -1.08148066  -0.61756954   4.15773052 
C   -1.19161942   0.52739619   3.38841521 
C   -1.49755081   0.46048807   2.04720672 
H   -0.87007273  -0.55117038   5.22108152 
H   -1.01106794   1.45246077   3.89734999 
H   -1.82363735  -2.90015271   1.88156136 
H   -1.21287401  -2.78165435   4.22963726 
H   -1.58430403   1.42449310   1.54079770 
C   -2.24585476  -1.04494597   0.10243755 
H   -3.15783749  -0.46347065  -0.01806438 
H   -2.56190931  -2.09654520   0.01729731 
O    1.96339573  -0.71645572  -1.26002425 
C    2.12213346  -0.53357378  -2.54006556 
O    1.20998650  -0.41042586  -3.35491136 
C    3.59254826  -0.47120925  -3.04197859 
H    3.94530247  -1.40568089  -3.49238210 
H    4.27979635  -0.16319229  -2.26658529 
H    3.60059868   0.24850651  -3.84998555 
*
