! EnGrad PBEh-3c
%output 
xyzfile=True 
end 
%scf 
maxiter 250 
end
%output
Print[P_Hirshfeld] = 1
end
% maxcore
4000
*xyz 0 1
Pd   0.43449220   0.24550329  -0.27665486 
O    1.87797238   1.31268567   0.53612967 
C    1.59759874   2.55192113   0.28500718 
O    0.53154071   2.89462262  -0.22576105 
C    2.69162972   3.55691677   0.62935539 
H    2.28522998   4.47704876   1.06337088 
H    3.18999173   3.86067117  -0.29883941 
H    3.45731690   3.15748526   1.30246295 
N   -1.31377638  -0.72983494  -1.03933006 
C   -1.08829582  -1.93255329  -1.85166514 
H   -0.46702360  -1.69524072  -2.70450929 
H   -2.05021541  -2.31609855  -2.17676940 
H   -0.59012005  -2.68607616  -1.25905033 
C   -1.96641467   0.28935175  -1.86380890 
H   -2.12180070   1.19939300  -1.28581115 
H   -2.93962557  -0.09479155  -2.17418914 
H   -1.35652629   0.52156037  -2.72734434 
C   -1.72273747  -0.80738424   1.46545610 
C   -1.57654476  -1.90372474   2.26360432 
C   -1.26393456  -1.83448354   3.59548466 
C   -1.06669051  -0.58997071   4.15824141 
C   -1.18456768   0.53917831   3.41884984 
C   -1.48954751   0.41941963   2.06785585 
H   -0.86724486  -0.50750447   5.19492822 
H   -1.03354715   1.48417809   3.91073154 
H   -1.76147534  -2.85846168   1.84647637 
H   -1.20170788  -2.75350806   4.19272803 
H   -1.59741020   1.19940075   1.59339130 
C   -2.24624944  -1.03449021   0.09099403 
H   -3.17335995  -0.47066081  -0.03430678 
H   -2.53531630  -2.09209420   0.03803863 
O    1.96297722  -0.65447295  -1.24034159 
C    2.08400566  -0.49157974  -2.52812448 
O    1.20286135  -0.42199349  -3.36791020 
C    3.57819912  -0.47362690  -3.00841040 
H    3.88139450  -1.44682441  -3.44413506 
H    4.30425421  -0.17604595  -2.23783057 
H    3.63499115   0.22830061  -3.85081202 
*
