! EnGrad PBEh-3c
%output 
xyzfile=True 
end 
%scf 
maxiter 250 
end
%output
Print[P_Hirshfeld] = 1
end
% maxcore
4000
*xyz 0 1
Pd   0.46041292   0.25547011  -0.29300317 
O    1.90620162   1.29035008   0.47829462 
C    1.61512765   2.52604151   0.27388316 
O    0.53173965   2.84605639  -0.23262371 
C    2.68670241   3.54222954   0.62049907 
H    2.26849786   4.45411941   1.05975021 
H    3.20434598   3.85980306  -0.29788641 
H    3.44931953   3.14743569   1.29987273 
N   -1.30462025  -0.71133653  -1.03574446 
C   -1.07907548  -1.92106795  -1.84706441 
H   -0.45403863  -1.69409172  -2.70645119 
H   -2.04117211  -2.32180706  -2.17640959 
H   -0.57798319  -2.68132223  -1.25854143 
C   -1.95643070   0.29794572  -1.87626185 
H   -2.11663585   1.20488916  -1.29795508 
H   -2.93088957  -0.08344398  -2.19341766 
H   -1.34065848   0.52842242  -2.73685446 
C   -1.72219903  -0.84970344   1.47833199 
C   -1.56443498  -1.93151067   2.27356407 
C   -1.26612613  -1.80897967   3.60312560 
C   -1.06389149  -0.59605841   4.20708493 
C   -1.16953726   0.54769687   3.48451008 
C   -1.49512972   0.32554636   2.16598867 
H   -0.84801533  -0.47462986   5.22669949 
H   -1.05899259   1.53364735   3.92265527 
H   -1.72407069  -2.85104254   1.79391331 
H   -1.19488504  -2.70872269   4.14666902 
H   -1.70171987   1.14874090   1.53219730 
C   -2.24344538  -1.01261603   0.07960247 
H   -3.18344556  -0.46674338  -0.07461382 
H   -2.50252130  -2.06502623   0.05601758 
O    1.95579926  -0.65642175  -1.25001426 
C    2.07384303  -0.46016093  -2.52822498 
O    1.17986691  -0.30781072  -3.37623822 
C    3.54307775  -0.47718800  -2.99793537 
H    3.80689265  -1.47114374  -3.38967967 
H    4.30349055  -0.20951999  -2.22671305 
H    3.67573659   0.21289905  -3.84796573 
*
