! EnGrad PBEh-3c
%output 
xyzfile=True 
end 
%scf 
maxiter 250 
end
%output
Print[P_Hirshfeld] = 1
end
% maxcore
4000
*xyz 0 1
Pd   0.47757201   0.25905529  -0.30710313 
O    1.93998855   1.27736558   0.44254844 
C    1.62379322   2.51685173   0.24969271 
O    0.55632752   2.80609455  -0.24263787 
C    2.69146069   3.53396937   0.61335805 
H    2.25694963   4.43009473   1.05554124 
H    3.21634879   3.85599094  -0.29199615 
H    3.44076453   3.13828520   1.29419105 
N   -1.28473194  -0.69517502  -1.02897203 
C   -1.06656569  -1.92009982  -1.83612703 
H   -0.44370632  -1.69543560  -2.70250378 
H   -2.03096808  -2.33085471  -2.17666491 
H   -0.56319157  -2.68439623  -1.24648724 
C   -1.94550795   0.30408108  -1.88822076 
H   -2.11234305   1.21037852  -1.31121143 
H   -2.92317081  -0.07698513  -2.21208403 
H   -1.32689218   0.52785232  -2.75151169 
C   -1.72075267  -0.85860806   1.51131185 
C   -1.56436738  -1.96815571   2.28397512 
C   -1.26946869  -1.80924385   3.61550695 
C   -1.06528306  -0.60182399   4.25951285 
C   -1.17068276   0.54392951   3.51624469 
C   -1.52859374   0.32712438   2.18708647 
H   -0.82629350  -0.47156973   5.29148241 
H   -1.08026040   1.56456278   3.92992952 
H   -1.71003729  -2.88801769   1.76106450 
H   -1.18799809  -2.70305064   4.13929664 
H   -1.79953414   1.18519150   1.48619794 
C   -2.23562451  -0.99802901   0.08626007 
H   -3.18179659  -0.46032048  -0.10325730 
H   -2.48471769  -2.04831872   0.05682228 
O    1.94679785  -0.69506259  -1.27350724 
C    2.06876319  -0.43576874  -2.55948986 
O    1.17726935  -0.17923210  -3.35589415 
C    3.52930521  -0.47816879  -2.99876812 
H    3.75775204  -1.48113476  -3.35552321 
H    4.27983220  -0.24440534  -2.23437100 
H    3.70069452   0.19919126  -3.84088238 
*
