! EnGrad PBEh-3c
%output 
xyzfile=True 
end 
%scf 
maxiter 250 
end
%output
Print[P_Hirshfeld] = 1
end
% maxcore
4000
*xyz 0 1
Pd   0.38853836   0.26924512  -0.27543090 
O    1.96467115   1.35895320   0.66175803 
C    1.67375502   2.60062373   0.31143264 
O    0.62296655   2.85922092  -0.17990734 
C    2.71852304   3.65941795   0.60300150 
H    2.24307061   4.54706289   1.02707990 
H    3.16638360   3.95887636  -0.34152461 
H    3.50435330   3.32717094   1.26841071 
N   -1.37542221  -0.72542040  -1.03339059 
C   -1.22281160  -1.80709592  -2.01485272 
H   -0.74191848  -1.48556578  -2.92339753 
H   -2.18799892  -2.18431324  -2.38123482 
H   -0.64818978  -2.61261237  -1.58845907 
C   -2.11983507   0.33163173  -1.73559736 
H   -2.26084569   1.19432331  -1.11198027 
H   -3.10505724  -0.02016374  -2.06338496 
H   -1.58372677   0.65252981  -2.62242169 
C   -1.55166459  -1.06891119   1.41737411 
C   -1.16354758  -2.14827209   2.25157444 
C   -1.00404239  -1.98327434   3.61144124 
C   -1.05355458  -0.72872834   4.16402268 
C   -1.45884638   0.35331777   3.36712066 
C   -1.64176971   0.16314034   2.02693373 
H   -0.89085615  -0.59026170   5.22633350 
H   -1.64766674   1.26571036   3.89348838 
H   -1.29128274  -3.15459134   1.90803766 
H   -0.89652502  -2.84949848   4.25549764 
H   -2.02281334   3.46027405   1.38789865 
C   -2.20390597  -1.27268454   0.09793314 
H   -3.19561147  -0.80798693   0.14806470 
H   -2.46243924  -2.32615862  -0.01111956 
O    1.91184834  -0.44877380  -1.25513275 
C    2.25495042  -0.41694045  -2.49430707 
O    1.45289518  -0.40151149  -3.34220472 
C    3.68887838  -0.67676121  -2.95399647 
H    3.79797957  -1.73902923  -3.20050430 
H    4.43028200  -0.44011991  -2.23131206 
H    3.91240013  -0.11292114  -3.86574587 
*
