! EnGrad PBEh-3c
%output 
xyzfile=True 
end 
%scf 
maxiter 250 
end
%output
Print[P_Hirshfeld] = 1
end
% maxcore
4000
*xyz 0 1
Pd   0.49577402   0.25379688  -0.31856468 
O    1.97349919   1.27535287   0.42592038 
C    1.66605095   2.50171395   0.23673717 
O    0.56120055   2.79163982  -0.27372944 
C    2.69771397   3.53038740   0.60574540 
H    2.24935017   4.41039985   1.05242660 
H    3.22916329   3.85243663  -0.28690685 
H    3.43630262   3.12784360   1.28970849 
N   -1.26575872  -0.68735268  -1.02213495 
C   -1.05287246  -1.92623701  -1.82105614 
H   -0.43758813  -1.70010662  -2.69104304 
H   -2.01582306  -2.33965124  -2.17407869 
H   -0.54881127  -2.69178222  -1.22776765 
C   -1.93388115   0.30454675  -1.89817938 
H   -2.10926080   1.21550943  -1.32614287 
H   -2.91343118  -0.07397605  -2.22773709 
H   -1.31735963   0.52095432  -2.76763216 
C   -1.72787614  -0.84564341   1.53862018 
C   -1.57146436  -2.00295431   2.29447171 
C   -1.27436441  -1.82843037   3.63860202 
C   -1.07026090  -0.60954389   4.30155279 
C   -1.19042812   0.54415312   3.51407703 
C   -1.57979192   0.39015471   2.16976161 
H   -0.80795694  -0.49618254   5.36367193 
H   -1.09848233   1.56663452   3.92999420 
H   -1.71463800  -2.94635673   1.75437755 
H   -1.17928482  -2.73387438   4.16738214 
H   -1.88204496   1.30339059   1.46059566 
C   -2.22355272  -0.99031452   0.10691055 
H   -3.16654930  -0.45320225  -0.11715483 
H   -2.47910680  -2.03985089   0.04246437 
O    1.93573637  -0.75759760  -1.31485012 
C    2.08051079  -0.41812361  -2.56911411 
O    1.17522562  -0.04846119  -3.34102305 
C    3.52361150  -0.48184674  -3.02024857 
H    3.73772188  -1.48456803  -3.34446655 
H    4.24675942  -0.27375091  -2.24573655 
H    3.71190419   0.19252078  -3.83745569 
*
