! EnGrad PBEh-3c
%output 
xyzfile=True 
end 
%scf 
maxiter 250 
end
%output
Print[P_Hirshfeld] = 1
end
% maxcore
4000
*xyz 0 1
Pd   0.45237401   0.33837471  -0.15379615 
O    1.91356255   1.23734457   0.60471084 
C    1.60283525   2.62661621   0.35097067 
O    0.60991768   2.90030173  -0.21738992 
C    2.74471555   3.64315049   0.61362166 
H    2.26118561   4.53105427   1.03017647 
H    3.19560204   3.95684083  -0.33577691 
H    3.53085648   3.30695927   1.28096298 
N   -1.43372214  -0.77786226  -1.10599184 
C   -1.19908824  -1.90337275  -2.01197001 
H   -0.64155036  -1.52676240  -2.85119573 
H   -2.19296812  -2.23341762  -2.27502332 
H   -0.65399464  -2.67521175  -1.48223813 
C   -2.11313832   0.33947988  -1.78504855 
H   -2.22899661   1.21432652  -1.14285022 
H   -3.07282218  -0.06267768  -2.08696005 
H   -1.51032407   0.56831184  -2.66118551 
C   -1.60768294  -1.02861324   1.45925451 
C   -1.38347581  -2.17064936   2.29477497 
C   -1.02675890  -2.00027018   3.61265888 
C   -1.09508361  -0.74396555   4.17307164 
C   -1.35189205   0.39455847   3.40036722 
C   -1.53121538   0.17237689   2.09297029 
H   -0.87372357  -0.59243609   5.22340693 
H   -1.49368603   1.33105761   3.85683833 
H   -1.47022253  -3.16728749   1.89613765 
H   -1.01940962  -2.85216631   4.27698931 
H   -1.92569462   3.37511054   1.34259056 
C   -2.22894632  -1.24174933   0.12918179 
H   -3.15597948  -0.67892499   0.12597921 
H   -2.49382682  -2.28020197  -0.04972569 
O    2.06247833  -0.31983299  -1.23995883 
C    2.14553353  -0.58400428  -2.59061347 
O    1.40904944  -0.65833751  -3.37035038 
C    3.70216211  -0.57363307  -2.95193185 
H    3.85787044  -1.58657743  -3.31181723 
H    4.46565172  -0.29473933  -2.24386443 
H    3.75975769   0.01563944  -3.88592461 
*
