! EnGrad PBEh-3c
%output 
xyzfile=True 
end 
%scf 
maxiter 250 
end
%output
Print[P_Hirshfeld] = 1
end
% maxcore
4000
*xyz 0 1
Pd   0.42280264   0.30818380  -0.20773030 
O    1.94094407   1.28891679   0.62954155 
C    1.62795504   2.61747903   0.33362749 
O    0.62064415   2.88000980  -0.19853902 
C    2.73591804   3.65309579   0.60646355 
H    2.25238917   4.53875086   1.02881559 
H    3.18220681   3.95838563  -0.33767042 
H    3.51855282   3.31650002   1.27516433 
N   -1.40993309  -0.75779109  -1.08295645 
C   -1.20759662  -1.86081976  -2.01445105 
H   -0.69026240  -1.50789509  -2.88249128 
H   -2.18964354  -2.20859766  -2.32292750 
H   -0.65243005  -2.64464215  -1.53161486 
C   -2.11739678   0.34059276  -1.76033972 
H   -2.24358184   1.20383338  -1.12997751 
H   -3.08587710  -0.04436813  -2.07512561 
H   -1.54412363   0.60616507  -2.64306030 
C   -1.58165788  -1.03965568   1.43793795 
C   -1.28177865  -2.16511880   2.27753999 
C   -1.01362073  -1.99271480   3.61095522 
C   -1.07690659  -0.73995486   4.16699209 
C   -1.40338292   0.37888470   3.37815783 
C   -1.58207965   0.16341190   2.06807349 
H   -0.88082679  -0.59128324   5.22585640 
H   -1.56535201   1.29615271   3.87256424 
H   -1.38757638  -3.15952516   1.90373982 
H   -0.96463845  -2.84980897   4.26696106 
H   -1.97112720   3.41882337   1.36331139 
C   -2.21836682  -1.25941276   0.12279795 
H   -3.17367413  -0.73912707   0.13648076 
H   -2.48005933  -2.30000979  -0.03242067 
O    1.99094091  -0.37752907  -1.24810018 
C    2.21176653  -0.51322875  -2.52795235 
O    1.41548775  -0.53617246  -3.37379349 
C    3.70527439  -0.61640506  -2.94321139 
H    3.82882958  -1.65751256  -3.26151950 
H    4.44316754  -0.36448034  -2.24479071 
H    3.83040887  -0.04369176  -3.87975391 
*
