! EnGrad PBEh-3c
%output 
xyzfile=True 
end 
%scf 
maxiter 250 
end
%output
Print[P_Hirshfeld] = 1
end
% maxcore
4000
*xyz 0 1
Pd   0.41372470   0.29891567  -0.22428723 
O    1.94934977   1.30474864   0.63716419 
C    1.63566642   2.61467405   0.32830341 
O    0.62393701   2.87378050  -0.19275208 
C    2.73321734   3.65614884   0.60426613 
H    2.24968880   4.54111359   1.02839782 
H    3.17809469   3.95885986  -0.33825170 
H    3.51477579   3.31942887   1.27338424 
N   -1.40263023  -0.75162955  -1.07588494 
C   -1.21020856  -1.84775666  -2.01521269 
H   -0.70521623  -1.50210312  -2.89209852 
H   -2.18862295  -2.20097832  -2.33763333 
H   -0.65194974  -2.63525776  -1.54677274 
C   -2.11870406   0.34093439  -1.75275450 
H   -2.24805927   1.20061215  -1.12602579 
H   -3.08988475  -0.03874739  -2.07149263 
H   -1.55449956   0.61778542  -2.63749614 
C   -1.57366860  -1.04304553   1.43139409 
C   -1.25055923  -2.16342101   2.27224912 
C   -1.00958752  -1.99039541   3.61043223 
C   -1.07132654  -0.73872364   4.16512576 
C   -1.41918980   0.37407311   3.37133990 
C   -1.59769418   0.16065980   2.06043056 
H   -0.88300736  -0.59092933   5.22660835 
H   -1.58735233   1.28543745   3.87739185 
H   -1.36220531  -3.15714224   1.90607356 
H   -0.94782456  -2.84908531   4.26388254 
H   -1.98507429   3.43224252   1.36967236 
C   -2.21511908  -1.26483515   0.12083821 
H   -3.17910610  -0.75760816   0.13970457 
H   -2.47583292  -2.30609047  -0.02710830 
O    1.96898005  -0.39524085  -1.25059945 
C    2.23209902  -0.49150178  -2.50871637 
O    1.41746422  -0.49866971  -3.37485047 
C    3.70622981  -0.62953539  -2.94053434 
H    3.81991449  -1.67928853  -3.24607889 
H    4.43626525  -0.38588974  -2.24507507 
H    3.85209767  -0.06190550  -3.87785960 
*
