! EnGrad PBEh-3c
%output 
xyzfile=True 
end 
%scf 
maxiter 250 
end
%output
Print[P_Hirshfeld] = 1
end
% maxcore
4000
*xyz 0 1
Pd   0.50000019   0.36946361  -0.08370809 
O    1.86058941   1.19863519   0.57344834 
C    1.58243745   2.61293220   0.37111613 
O    0.59095789   2.93680965  -0.24466408 
C    2.74949251   3.62203918   0.62665405 
H    2.27760675   4.51796869   1.03324565 
H    3.21419508   3.94949243  -0.32970734 
H    3.55001466   3.28944703   1.29076609 
N   -1.45549009  -0.79790710  -1.11139356 
C   -1.18780421  -1.96143958  -1.99462157 
H   -0.56063397  -1.56292475  -2.80355291 
H   -2.20136972  -2.28293361  -2.20538187 
H   -0.65628137  -2.72650561  -1.40261645 
C   -2.10083577   0.32701985  -1.82173704 
H   -2.20396670   1.22665693  -1.16828252 
H   -3.05894154  -0.08730140  -2.11187526 
H   -1.45680159   0.50999410  -2.69204210 
C   -1.65553859  -1.02410720   1.49353190 
C   -1.54226184  -2.17546637   2.31732272 
C   -1.06555532  -2.01049198   3.62025116 
C   -1.11463355  -0.74748492   4.18958521 
C   -1.26667138   0.41406200   3.43985295 
C   -1.44728771   0.19692432   2.12085876 
H   -0.86401061  -0.59565781   5.22080347 
H   -1.37188363   1.39993411   3.83638412 
H   -1.60834177  -3.17833047   1.88160094 
H   -1.10358563  -2.85884731   4.29308282 
H   -1.84856358   3.28947861   1.30923185 
C   -2.24281775  -1.20537454   0.11809439 
H   -3.13126956  -0.57936332   0.10839153 
H   -2.51712120  -2.24814238  -0.07414241 
O    2.16499815  -0.22934386  -1.26474398 
C    2.16548268  -0.67101863  -2.54708956 
O    1.28713434  -0.87712928  -3.46398541 
C    3.68527544  -0.50620543  -2.97388207 
H    3.91241777  -1.47597617  -3.39433885 
H    4.49027620  -0.17869015  -2.24704048 
H    3.64697547   0.11667214  -3.89191976 
*
