38
Coordinates from ORCA-job reaction-1-cineb10_optts_Compound_2_IRC_B E -988.511322177717
  Pd      0.144597     -0.058519     -0.156001
  O       1.454713      0.720644      1.068912
  C       1.440854      2.019106      1.088762
  O       0.584184      2.713441      0.569358
  C       2.621959      2.617429      1.822582
  H       2.404206      3.638478      2.132203
  H       3.480588      2.641963      1.146564
  H       2.911659      2.021448      2.689160
  N      -1.433627     -0.978256     -1.171813
  C      -1.193784     -2.433759     -1.381481
  H      -0.374444     -2.561906     -2.104979
  H      -2.108495     -2.907322     -1.756752
  H      -0.920512     -2.926243     -0.433113
  C      -1.837843     -0.330534     -2.444933
  H      -1.935903      0.761918     -2.302242
  H      -2.802050     -0.735663     -2.774807
  H      -1.074807     -0.525914     -3.216460
  C      -1.684788     -0.417230      1.180450
  C      -1.046319     -1.421573      1.952459
  C      -0.435384     -1.100013      3.156832
  C      -0.457960      0.218653      3.620075
  C      -1.079123      1.220893      2.879243
  C      -1.685421      0.909532      1.666777
  H       0.022918      0.463861      4.563496
  H      -1.076455      2.250492      3.226869
  H      -1.064219     -2.457269      1.617148
  H       0.059105     -1.876966      3.735648
  H      -2.164307      1.693800      1.086547
  C      -2.451825     -0.751504     -0.091073
  H      -3.102908      0.120172     -0.369346
  H      -3.124720     -1.646593      0.032572
  O       1.548870      0.371920     -1.561323
  C       1.776438     -0.381597     -2.676433
  O       1.078954     -1.407883     -3.222993
  C       3.089053      0.126236     -3.298334
  H       3.209105     -0.274504     -4.302979
  H       3.939404     -0.210887     -2.682693
  H       3.130695      1.224967     -3.323745
38
Coordinates from ORCA-job reaction-1-cineb10_optts_Compound_2_IRC_B E -988.534037522741
  Pd      0.146855     -0.057148     -0.156335
  O       1.454607      0.721063      1.068336
  C       1.440094      2.019599      1.088509
  O       0.585131      2.712423      0.570039
  C       2.622171      2.617472      1.822769
  H       2.404330      3.638134      2.132083
  H       3.480254      2.642002      1.146885
  H       2.911465      2.021745      2.688735
  N      -1.435519     -0.979186     -1.172312
  C      -1.192220     -2.432580     -1.381183
  H      -0.377507     -2.560777     -2.102128
  H      -2.108139     -2.907183     -1.756824
  H      -0.921221     -2.923962     -0.436812
  C      -1.835812     -0.329506     -2.445041
  H      -1.935249      0.757165     -2.302455
  H      -2.801516     -0.735210     -2.774896
  H      -1.077711     -0.525368     -3.212677
  C      -1.684944     -0.416788      1.181509
  C      -1.046623     -1.420017      1.952338
  C      -0.435821     -1.098540      3.156587
  C      -0.458541      0.217960      3.618622
  C      -1.078906      1.219298      2.879175
  C      -1.684807      0.908159      1.667533
  H       0.022244      0.463539      4.562162
  H      -1.076415      2.248709      3.226388
  H      -1.064310     -2.455496      1.618028
  H       0.058215     -1.875481      3.734624
  H      -2.163842      1.692815      1.087450
  C      -2.456055     -0.751787     -0.093395
  H      -3.098023      0.113515     -0.367592
  H      -3.119695     -1.640133      0.031453
  O       1.543137      0.345928     -1.585341
  C       1.755644     -0.399130     -2.677022
  O       1.109281     -1.360629     -3.195255
  C       3.085617      0.122509     -3.298355
  H       3.209589     -0.274183     -4.302922
  H       3.936511     -0.210375     -2.684170
  H       3.129500      1.221639     -3.323488
38
Coordinates from ORCA-job reaction-1-cineb10_optts_Compound_2_IRC_B E -988.543422610818
  Pd      0.150127     -0.055717     -0.159195
  O       1.455149      0.721666      1.067077
  C       1.440808      2.019332      1.089103
  O       0.584958      2.712172      0.570136
  C       2.622089      2.617512      1.822842
  H       2.404529      3.637775      2.131981
  H       3.479856      2.642054      1.147273
  H       2.911225      2.022059      2.688297
  N      -1.437739     -0.979767     -1.172573
  C      -1.192960     -2.429788     -1.381350
  H      -0.381221     -2.559390     -2.098687
  H      -2.106857     -2.906866     -1.756903
  H      -0.921751     -2.920813     -0.441402
  C      -1.835224     -0.330490     -2.443630
  H      -1.934097      0.751514     -2.302497
  H      -2.800044     -0.734158     -2.775165
  H      -1.081027     -0.524676     -3.208220
  C      -1.686394     -0.416686      1.181633
  C      -1.047119     -1.417829      1.952309
  C      -0.436638     -1.097135      3.155593
  C      -0.458945      0.217476      3.617494
  C      -1.078744      1.217347      2.878910
  C      -1.684337      0.906671      1.668197
  H       0.021081      0.462955      4.559834
  H      -1.076322      2.245750      3.225633
  H      -1.064468     -2.452679      1.619448
  H       0.056830     -1.873119      3.733025
  H      -2.162984      1.691065      1.089114
  C      -2.456109     -0.752162     -0.094816
  H      -3.092487      0.105647     -0.365938
  H      -3.113868     -1.632505      0.029879
  O       1.528124      0.313709     -1.605845
  C       1.756040     -0.398253     -2.675500
  O       1.130875     -1.322247     -3.168750
  C       3.079038      0.117394     -3.297535
  H       3.210535     -0.273998     -4.303684
  H       3.931818     -0.210076     -2.686207
  H       3.126998      1.215607     -3.323133
38
Coordinates from ORCA-job reaction-1-cineb10_optts_Compound_2_IRC_B E -988.546708029427
  Pd      0.151261     -0.056614     -0.166201
  O       1.457789      0.722152      1.063778
  C       1.441438      2.019705      1.089338
  O       0.585026      2.711436      0.570600
  C       2.621780      2.617661      1.823012
  H       2.404816      3.637515      2.131941
  H       3.479365      2.642138      1.147784
  H       2.910917      2.022384      2.687916
  N      -1.439265     -0.979744     -1.172052
  C      -1.196722     -2.424518     -1.381990
  H      -0.385787     -2.556471     -2.094678
  H      -2.105328     -2.906365     -1.757508
  H      -0.922063     -2.915698     -0.447364
  C      -1.836460     -0.334063     -2.439589
  H      -1.932147      0.744431     -2.301738
  H      -2.798409     -0.732761     -2.775982
  H      -1.084251     -0.524425     -3.202184
  C      -1.688282     -0.416583      1.181380
  C      -1.048478     -1.414527      1.951948
  C      -0.438209     -1.095126      3.153446
  C      -0.459568      0.216991      3.615865
  C      -1.078721      1.214314      2.878166
  C      -1.684108      0.904205      1.668425
  H       0.019417      0.462059      4.556392
  H      -1.076157      2.240815      3.224425
  H      -1.064798     -2.448008      1.621852
  H       0.054541     -1.869338      3.730276
  H      -2.161697      1.688357      1.092010
  C      -2.448509     -0.752344     -0.095021
  H      -3.085789      0.096394     -0.364824
  H      -3.106650     -1.623868      0.027610
  O       1.503331      0.287982     -1.606646
  C       1.778685     -0.380109     -2.672996
  O       1.138685     -1.305157     -3.152243
  C       3.075921      0.114813     -3.298413
  H       3.210712     -0.274474     -4.304527
  H       3.924022     -0.210411     -2.689106
  H       3.122396      1.205399     -3.322755
38
Coordinates from ORCA-job reaction-1-cineb10_optts_Compound_2_IRC_B E -988.547093854669
  Pd      0.148477     -0.059441     -0.167765
  O       1.460204      0.721838      1.059321
  C       1.441732      2.019113      1.088421
  O       0.584711      2.711284      0.571199
  C       2.621562      2.617833      1.823194
  H       2.404950      3.637794      2.132118
  H       3.479149      2.642236      1.148122
  H       2.910703      2.022476      2.687966
  N      -1.438479     -0.979812     -1.171959
  C      -1.199026     -2.421820     -1.382810
  H      -0.388124     -2.553024     -2.093482
  H      -2.106131     -2.905746     -1.758769
  H      -0.922060     -2.911887     -0.450034
  C      -1.837482     -0.336243     -2.437091
  H      -1.930916      0.741127     -2.299974
  H      -2.799108     -0.732926     -2.776625
  H      -1.084926     -0.525543     -3.197967
  C      -1.687655     -0.416292      1.181479
  C      -1.049532     -1.412800      1.951774
  C      -0.439381     -1.093892      3.151997
  C      -0.460036      0.216658      3.614700
  C      -1.079223      1.212489      2.877142
  C      -1.684248      0.902954      1.668429
  H       0.018670      0.461560      4.554570
  H      -1.076131      2.237659      3.223613
  H      -1.065298     -2.445349      1.623281
  H       0.052958     -1.867113      3.728162
  H      -2.161327      1.687091      1.093720
  C      -2.442726     -0.752096     -0.094616
  H      -3.081467      0.092591     -0.365148
  H      -3.101789     -1.620671      0.026358
  O       1.497823      0.286390     -1.600350
  C       1.781233     -0.375019     -2.666359
  O       1.143003     -1.304445     -3.151481
  C       3.076168      0.114673     -3.298958
  H       3.209308     -0.275896     -4.305397
  H       3.921477     -0.211920     -2.689410
  H       3.119549      1.203400     -3.323059
38
Coordinates from ORCA-job reaction-1-cineb10_optts_Compound_2_IRC_B E -988.547198326791
  Pd      0.148090     -0.059860     -0.167678
  O       1.460596      0.721755      1.058408
  C       1.441798      2.018963      1.088176
  O       0.584594      2.711244      0.571342
  C       2.621504      2.617826      1.823198
  H       2.404949      3.637821      2.132143
  H       3.479128      2.642261      1.148197
  H       2.910651      2.022488      2.687986
  N      -1.438390     -0.979843     -1.171911
  C      -1.199365     -2.421510     -1.383005
  H      -0.388441     -2.552322     -2.093487
  H      -2.106390     -2.905549     -1.759039
  H      -0.922053     -2.911252     -0.450378
  C      -1.837666     -0.336541     -2.436765
  H      -1.930731      0.740674     -2.299563
  H      -2.799281     -0.733033     -2.776657
  H      -1.084922     -0.525863     -3.197258
  C      -1.687458     -0.416216      1.181424
  C      -1.049666     -1.412572      1.951739
  C      -0.439555     -1.093714      3.151827
  C      -0.460115      0.216619      3.614514
  C      -1.079319      1.212242      2.877018
  C      -1.684290      0.902807      1.668410
  H       0.018578      0.461490      4.554293
  H      -1.076154      2.237220      3.223491
  H      -1.065430     -2.445032      1.623476
  H       0.052719     -1.866837      3.727825
  H      -2.161354      1.686969      1.093942
  C      -2.441913     -0.752066     -0.094602
  H      -3.080696      0.092173     -0.365285
  H      -3.100906     -1.620365      0.026193
  O       1.497278      0.286519     -1.599188
  C       1.780389     -0.376208     -2.666414
  O       1.144750     -1.302924     -3.150410
  C       3.076133      0.114777     -3.298881
  H       3.208791     -0.276173     -4.305272
  H       3.921168     -0.212205     -2.689418
  H       3.119123      1.203257     -3.323157
38
Coordinates from ORCA-job reaction-1-cineb10_optts_Compound_2_IRC_B E -988.547273062840
  Pd      0.147626     -0.060426     -0.167519
  O       1.461188      0.721623      1.057071
  C       1.441887      2.018759      1.087791
  O       0.584406      2.711179      0.571573
  C       2.621415      2.617800      1.823191
  H       2.404933      3.637845      2.132174
  H       3.479107      2.642300      1.148311
  H       2.910567      2.022503      2.688016
  N      -1.438261     -0.979898     -1.171858
  C      -1.199845     -2.421075     -1.383306
  H      -0.388897     -2.551288     -2.093554
  H      -2.106790     -2.905235     -1.759447
  H      -0.922039     -2.910349     -0.450860
  C      -1.837925     -0.336965     -2.436298
  H      -1.930470      0.740049     -2.298941
  H      -2.799535     -0.733208     -2.776678
  H      -1.084909     -0.526357     -3.196239
  C      -1.687176     -0.416104      1.181331
  C      -1.049840     -1.412269      1.951689
  C      -0.439803     -1.093481      3.151587
  C      -0.460222      0.216569      3.614266
  C      -1.079470      1.211910      2.876839
  C      -1.684359      0.902632      1.668381
  H       0.018457      0.461394      4.553902
  H      -1.076198      2.236625      3.223323
  H      -1.065639     -2.444610      1.623745
  H       0.052386     -1.866476      3.727351
  H      -2.161419      1.686816      1.094247
  C      -2.440797     -0.752026     -0.094582
  H      -3.079573      0.091640     -0.365508
  H      -3.099616     -1.619996      0.025973
  O       1.496566      0.286527     -1.597787
  C       1.780165     -0.376395     -2.665608
  O       1.146334     -1.302085     -3.149453
  C       3.075926      0.114857     -3.298672
  H       3.207990     -0.276584     -4.305057
  H       3.920743     -0.212621     -2.689411
  H       3.118495      1.203116     -3.323301
38
Coordinates from ORCA-job reaction-1-cineb10_optts_Compound_2_IRC_B E -988.547372545859
  Pd      0.146920     -0.061408     -0.167151
  O       1.462332      0.721366      1.054594
  C       1.442056      2.018416      1.087044
  O       0.584002      2.711032      0.572034
  C       2.621242      2.617717      1.823144
  H       2.404866      3.637844      2.132210
  H       3.479092      2.642376      1.148537
  H       2.910385      2.022521      2.688067
  N      -1.438025     -0.980006     -1.171763
  C      -1.200685     -2.420340     -1.383898
  H      -0.389707     -2.549347     -2.093837
  H      -2.107578     -2.904582     -1.760232
  H      -0.922009     -2.908749     -0.451707
  C      -1.838376     -0.337703     -2.435480
  H      -1.930016      0.738982     -2.297743
  H      -2.800002     -0.733572     -2.776638
  H      -1.084835     -0.527340     -3.194401
  C      -1.686647     -0.415891      1.181124
  C      -1.050113     -1.411780      1.951590
  C      -0.440240     -1.093107      3.151178
  C      -0.460409      0.216488      3.613841
  C      -1.079765      1.211369      2.876528
  C      -1.684497      0.902391      1.668312
  H       0.018269      0.461239      4.553221
  H      -1.076310      2.235643      3.223042
  H      -1.066065     -2.443934      1.624200
  H       0.051808     -1.865915      3.726525
  H      -2.161606      1.686593      1.094756
  C      -2.438903     -0.751964     -0.094561
  H      -3.077515      0.090840     -0.365976
  H      -3.097245     -1.619508      0.025620
  O       1.495470      0.286537     -1.595423
  C       1.780163     -0.376162     -2.663780
  O       1.148739     -1.301270     -3.147804
  C       3.075413      0.115014     -3.298131
  H       3.206325     -0.277369     -4.304516
  H       3.920019     -0.213371     -2.689371
  H       3.117360      1.202983     -3.323570
38
Coordinates from ORCA-job reaction-1-cineb10_optts_Compound_2_IRC_B E -988.547460093731
  Pd      0.146401     -0.062435     -0.166612
  O       1.463789      0.721069      1.051712
  C       1.442252      2.018062      1.086107
  O       0.583416      2.710799      0.572646
  C       2.621033      2.617562      1.823026
  H       2.404703      3.637748      2.132210
  H       3.479131      2.642473      1.148828
  H       2.910110      2.022518      2.688110
  N      -1.437750     -0.980139     -1.171648
  C      -1.201562     -2.419608     -1.384664
  H      -0.390594     -2.547024     -2.094494
  H      -2.108591     -2.903669     -1.761205
  H      -0.921966     -2.907040     -0.452628
  C      -1.838839     -0.338469     -2.434602
  H      -1.929541      0.737909     -2.296262
  H      -2.800528     -0.734071     -2.776423
  H      -1.084656     -0.528619     -3.192354
  C      -1.686017     -0.415623      1.180832
  C      -1.050340     -1.411334      1.951449
  C      -0.440698     -1.092784      3.150772
  C      -0.460609      0.216416      3.613408
  C      -1.080134      1.210886      2.876213
  C      -1.684675      0.902258      1.668203
  H       0.018124      0.461101      4.552511
  H      -1.076505      2.234742      3.222775
  H      -1.066642     -2.443355      1.624643
  H       0.051210     -1.865478      3.725666
  H      -2.161965      1.686461      1.095242
  C      -2.437015     -0.751912     -0.094568
  H      -3.075163      0.090271     -0.366632
  H      -3.094523     -1.619328      0.025323
  O       1.494606      0.286582     -1.593047
  C       1.780751     -0.375088     -2.661136
  O       1.150701     -1.301509     -3.145939
  C       3.074616      0.115233     -3.297237
  H       3.203987     -0.278334     -4.303566
  H       3.919283     -0.214191     -2.689272
  H       3.116088      1.203056     -3.323883
