38
Coordinates from ORCA-job reaction-1-cineb10_optts_Compound_2_IRC_Full E -988.547460093731
  Pd      0.146401     -0.062435     -0.166612
  O       1.463789      0.721069      1.051712
  C       1.442252      2.018062      1.086107
  O       0.583416      2.710799      0.572646
  C       2.621033      2.617562      1.823026
  H       2.404703      3.637748      2.132210
  H       3.479131      2.642473      1.148828
  H       2.910110      2.022518      2.688110
  N      -1.437750     -0.980139     -1.171648
  C      -1.201562     -2.419608     -1.384664
  H      -0.390594     -2.547024     -2.094494
  H      -2.108591     -2.903669     -1.761205
  H      -0.921966     -2.907040     -0.452628
  C      -1.838839     -0.338469     -2.434602
  H      -1.929541      0.737909     -2.296262
  H      -2.800528     -0.734071     -2.776423
  H      -1.084656     -0.528619     -3.192354
  C      -1.686017     -0.415623      1.180832
  C      -1.050340     -1.411334      1.951449
  C      -0.440698     -1.092784      3.150772
  C      -0.460609      0.216416      3.613408
  C      -1.080134      1.210886      2.876213
  C      -1.684675      0.902258      1.668203
  H       0.018124      0.461101      4.552511
  H      -1.076505      2.234742      3.222775
  H      -1.066642     -2.443355      1.624643
  H       0.051210     -1.865478      3.725666
  H      -2.161965      1.686461      1.095242
  C      -2.437015     -0.751912     -0.094568
  H      -3.075163      0.090271     -0.366632
  H      -3.094523     -1.619328      0.025323
  O       1.494606      0.286582     -1.593047
  C       1.780751     -0.375088     -2.661136
  O       1.150701     -1.301509     -3.145939
  C       3.074616      0.115233     -3.297237
  H       3.203987     -0.278334     -4.303566
  H       3.919283     -0.214191     -2.689272
  H       3.116088      1.203056     -3.323883
38
Coordinates from ORCA-job reaction-1-cineb10_optts_Compound_2_IRC_Full E -988.547372545859
  Pd      0.146920     -0.061408     -0.167151
  O       1.462332      0.721366      1.054594
  C       1.442056      2.018416      1.087044
  O       0.584002      2.711032      0.572034
  C       2.621242      2.617717      1.823144
  H       2.404866      3.637844      2.132210
  H       3.479092      2.642376      1.148537
  H       2.910385      2.022521      2.688067
  N      -1.438025     -0.980006     -1.171763
  C      -1.200685     -2.420340     -1.383898
  H      -0.389707     -2.549347     -2.093837
  H      -2.107578     -2.904582     -1.760232
  H      -0.922009     -2.908749     -0.451707
  C      -1.838376     -0.337703     -2.435480
  H      -1.930016      0.738982     -2.297743
  H      -2.800002     -0.733572     -2.776638
  H      -1.084835     -0.527340     -3.194401
  C      -1.686647     -0.415891      1.181124
  C      -1.050113     -1.411780      1.951590
  C      -0.440240     -1.093107      3.151178
  C      -0.460409      0.216488      3.613841
  C      -1.079765      1.211369      2.876528
  C      -1.684497      0.902391      1.668312
  H       0.018269      0.461239      4.553221
  H      -1.076310      2.235643      3.223042
  H      -1.066065     -2.443934      1.624200
  H       0.051808     -1.865915      3.726525
  H      -2.161606      1.686593      1.094756
  C      -2.438903     -0.751964     -0.094561
  H      -3.077515      0.090840     -0.365976
  H      -3.097245     -1.619508      0.025620
  O       1.495470      0.286537     -1.595423
  C       1.780163     -0.376162     -2.663780
  O       1.148739     -1.301270     -3.147804
  C       3.075413      0.115014     -3.298131
  H       3.206325     -0.277369     -4.304516
  H       3.920019     -0.213371     -2.689371
  H       3.117360      1.202983     -3.323570
38
Coordinates from ORCA-job reaction-1-cineb10_optts_Compound_2_IRC_Full E -988.547273062840
  Pd      0.147626     -0.060426     -0.167519
  O       1.461188      0.721623      1.057071
  C       1.441887      2.018759      1.087791
  O       0.584406      2.711179      0.571573
  C       2.621415      2.617800      1.823191
  H       2.404933      3.637845      2.132174
  H       3.479107      2.642300      1.148311
  H       2.910567      2.022503      2.688016
  N      -1.438261     -0.979898     -1.171858
  C      -1.199845     -2.421075     -1.383306
  H      -0.388897     -2.551288     -2.093554
  H      -2.106790     -2.905235     -1.759447
  H      -0.922039     -2.910349     -0.450860
  C      -1.837925     -0.336965     -2.436298
  H      -1.930470      0.740049     -2.298941
  H      -2.799535     -0.733208     -2.776678
  H      -1.084909     -0.526357     -3.196239
  C      -1.687176     -0.416104      1.181331
  C      -1.049840     -1.412269      1.951689
  C      -0.439803     -1.093481      3.151587
  C      -0.460222      0.216569      3.614266
  C      -1.079470      1.211910      2.876839
  C      -1.684359      0.902632      1.668381
  H       0.018457      0.461394      4.553902
  H      -1.076198      2.236625      3.223323
  H      -1.065639     -2.444610      1.623745
  H       0.052386     -1.866476      3.727351
  H      -2.161419      1.686816      1.094247
  C      -2.440797     -0.752026     -0.094582
  H      -3.079573      0.091640     -0.365508
  H      -3.099616     -1.619996      0.025973
  O       1.496566      0.286527     -1.597787
  C       1.780165     -0.376395     -2.665608
  O       1.146334     -1.302085     -3.149453
  C       3.075926      0.114857     -3.298672
  H       3.207990     -0.276584     -4.305057
  H       3.920743     -0.212621     -2.689411
  H       3.118495      1.203116     -3.323301
38
Coordinates from ORCA-job reaction-1-cineb10_optts_Compound_2_IRC_Full E -988.547198326791
  Pd      0.148090     -0.059860     -0.167678
  O       1.460596      0.721755      1.058408
  C       1.441798      2.018963      1.088176
  O       0.584594      2.711244      0.571342
  C       2.621504      2.617826      1.823198
  H       2.404949      3.637821      2.132143
  H       3.479128      2.642261      1.148197
  H       2.910651      2.022488      2.687986
  N      -1.438390     -0.979843     -1.171911
  C      -1.199365     -2.421510     -1.383005
  H      -0.388441     -2.552322     -2.093487
  H      -2.106390     -2.905549     -1.759039
  H      -0.922053     -2.911252     -0.450378
  C      -1.837666     -0.336541     -2.436765
  H      -1.930731      0.740674     -2.299563
  H      -2.799281     -0.733033     -2.776657
  H      -1.084922     -0.525863     -3.197258
  C      -1.687458     -0.416216      1.181424
  C      -1.049666     -1.412572      1.951739
  C      -0.439555     -1.093714      3.151827
  C      -0.460115      0.216619      3.614514
  C      -1.079319      1.212242      2.877018
  C      -1.684290      0.902807      1.668410
  H       0.018578      0.461490      4.554293
  H      -1.076154      2.237220      3.223491
  H      -1.065430     -2.445032      1.623476
  H       0.052719     -1.866837      3.727825
  H      -2.161354      1.686969      1.093942
  C      -2.441913     -0.752066     -0.094602
  H      -3.080696      0.092173     -0.365285
  H      -3.100906     -1.620365      0.026193
  O       1.497278      0.286519     -1.599188
  C       1.780389     -0.376208     -2.666414
  O       1.144750     -1.302924     -3.150410
  C       3.076133      0.114777     -3.298881
  H       3.208791     -0.276173     -4.305272
  H       3.921168     -0.212205     -2.689418
  H       3.119123      1.203257     -3.323157
38
Coordinates from ORCA-job reaction-1-cineb10_optts_Compound_2_IRC_Full E -988.547093854669
  Pd      0.148477     -0.059441     -0.167765
  O       1.460204      0.721838      1.059321
  C       1.441732      2.019113      1.088421
  O       0.584711      2.711284      0.571199
  C       2.621562      2.617833      1.823194
  H       2.404950      3.637794      2.132118
  H       3.479149      2.642236      1.148122
  H       2.910703      2.022476      2.687966
  N      -1.438479     -0.979812     -1.171959
  C      -1.199026     -2.421820     -1.382810
  H      -0.388124     -2.553024     -2.093482
  H      -2.106131     -2.905746     -1.758769
  H      -0.922060     -2.911887     -0.450034
  C      -1.837482     -0.336243     -2.437091
  H      -1.930916      0.741127     -2.299974
  H      -2.799108     -0.732926     -2.776625
  H      -1.084926     -0.525543     -3.197967
  C      -1.687655     -0.416292      1.181479
  C      -1.049532     -1.412800      1.951774
  C      -0.439381     -1.093892      3.151997
  C      -0.460036      0.216658      3.614700
  C      -1.079223      1.212489      2.877142
  C      -1.684248      0.902954      1.668429
  H       0.018670      0.461560      4.554570
  H      -1.076131      2.237659      3.223613
  H      -1.065298     -2.445349      1.623281
  H       0.052958     -1.867113      3.728162
  H      -2.161327      1.687091      1.093720
  C      -2.442726     -0.752096     -0.094616
  H      -3.081467      0.092591     -0.365148
  H      -3.101789     -1.620671      0.026358
  O       1.497823      0.286390     -1.600350
  C       1.781233     -0.375019     -2.666359
  O       1.143003     -1.304445     -3.151481
  C       3.076168      0.114673     -3.298958
  H       3.209308     -0.275896     -4.305397
  H       3.921477     -0.211920     -2.689410
  H       3.119549      1.203400     -3.323059
38
Coordinates from ORCA-job reaction-1-cineb10_optts_Compound_2_IRC_Full E -988.546708029427
  Pd      0.151261     -0.056614     -0.166201
  O       1.457789      0.722152      1.063778
  C       1.441438      2.019705      1.089338
  O       0.585026      2.711436      0.570600
  C       2.621780      2.617661      1.823012
  H       2.404816      3.637515      2.131941
  H       3.479365      2.642138      1.147784
  H       2.910917      2.022384      2.687916
  N      -1.439265     -0.979744     -1.172052
  C      -1.196722     -2.424518     -1.381990
  H      -0.385787     -2.556471     -2.094678
  H      -2.105328     -2.906365     -1.757508
  H      -0.922063     -2.915698     -0.447364
  C      -1.836460     -0.334063     -2.439589
  H      -1.932147      0.744431     -2.301738
  H      -2.798409     -0.732761     -2.775982
  H      -1.084251     -0.524425     -3.202184
  C      -1.688282     -0.416583      1.181380
  C      -1.048478     -1.414527      1.951948
  C      -0.438209     -1.095126      3.153446
  C      -0.459568      0.216991      3.615865
  C      -1.078721      1.214314      2.878166
  C      -1.684108      0.904205      1.668425
  H       0.019417      0.462059      4.556392
  H      -1.076157      2.240815      3.224425
  H      -1.064798     -2.448008      1.621852
  H       0.054541     -1.869338      3.730276
  H      -2.161697      1.688357      1.092010
  C      -2.448509     -0.752344     -0.095021
  H      -3.085789      0.096394     -0.364824
  H      -3.106650     -1.623868      0.027610
  O       1.503331      0.287982     -1.606646
  C       1.778685     -0.380109     -2.672996
  O       1.138685     -1.305157     -3.152243
  C       3.075921      0.114813     -3.298413
  H       3.210712     -0.274474     -4.304527
  H       3.924022     -0.210411     -2.689106
  H       3.122396      1.205399     -3.322755
38
Coordinates from ORCA-job reaction-1-cineb10_optts_Compound_2_IRC_Full E -988.543422610818
  Pd      0.150127     -0.055717     -0.159195
  O       1.455149      0.721666      1.067077
  C       1.440808      2.019332      1.089103
  O       0.584958      2.712172      0.570136
  C       2.622089      2.617512      1.822842
  H       2.404529      3.637775      2.131981
  H       3.479856      2.642054      1.147273
  H       2.911225      2.022059      2.688297
  N      -1.437739     -0.979767     -1.172573
  C      -1.192960     -2.429788     -1.381350
  H      -0.381221     -2.559390     -2.098687
  H      -2.106857     -2.906866     -1.756903
  H      -0.921751     -2.920813     -0.441402
  C      -1.835224     -0.330490     -2.443630
  H      -1.934097      0.751514     -2.302497
  H      -2.800044     -0.734158     -2.775165
  H      -1.081027     -0.524676     -3.208220
  C      -1.686394     -0.416686      1.181633
  C      -1.047119     -1.417829      1.952309
  C      -0.436638     -1.097135      3.155593
  C      -0.458945      0.217476      3.617494
  C      -1.078744      1.217347      2.878910
  C      -1.684337      0.906671      1.668197
  H       0.021081      0.462955      4.559834
  H      -1.076322      2.245750      3.225633
  H      -1.064468     -2.452679      1.619448
  H       0.056830     -1.873119      3.733025
  H      -2.162984      1.691065      1.089114
  C      -2.456109     -0.752162     -0.094816
  H      -3.092487      0.105647     -0.365938
  H      -3.113868     -1.632505      0.029879
  O       1.528124      0.313709     -1.605845
  C       1.756040     -0.398253     -2.675500
  O       1.130875     -1.322247     -3.168750
  C       3.079038      0.117394     -3.297535
  H       3.210535     -0.273998     -4.303684
  H       3.931818     -0.210076     -2.686207
  H       3.126998      1.215607     -3.323133
38
Coordinates from ORCA-job reaction-1-cineb10_optts_Compound_2_IRC_Full E -988.534037522741
  Pd      0.146855     -0.057148     -0.156335
  O       1.454607      0.721063      1.068336
  C       1.440094      2.019599      1.088509
  O       0.585131      2.712423      0.570039
  C       2.622171      2.617472      1.822769
  H       2.404330      3.638134      2.132083
  H       3.480254      2.642002      1.146885
  H       2.911465      2.021745      2.688735
  N      -1.435519     -0.979186     -1.172312
  C      -1.192220     -2.432580     -1.381183
  H      -0.377507     -2.560777     -2.102128
  H      -2.108139     -2.907183     -1.756824
  H      -0.921221     -2.923962     -0.436812
  C      -1.835812     -0.329506     -2.445041
  H      -1.935249      0.757165     -2.302455
  H      -2.801516     -0.735210     -2.774896
  H      -1.077711     -0.525368     -3.212677
  C      -1.684944     -0.416788      1.181509
  C      -1.046623     -1.420017      1.952338
  C      -0.435821     -1.098540      3.156587
  C      -0.458541      0.217960      3.618622
  C      -1.078906      1.219298      2.879175
  C      -1.684807      0.908159      1.667533
  H       0.022244      0.463539      4.562162
  H      -1.076415      2.248709      3.226388
  H      -1.064310     -2.455496      1.618028
  H       0.058215     -1.875481      3.734624
  H      -2.163842      1.692815      1.087450
  C      -2.456055     -0.751787     -0.093395
  H      -3.098023      0.113515     -0.367592
  H      -3.119695     -1.640133      0.031453
  O       1.543137      0.345928     -1.585341
  C       1.755644     -0.399130     -2.677022
  O       1.109281     -1.360629     -3.195255
  C       3.085617      0.122509     -3.298355
  H       3.209589     -0.274183     -4.302922
  H       3.936511     -0.210375     -2.684170
  H       3.129500      1.221639     -3.323488
38
Coordinates from ORCA-job reaction-1-cineb10_optts_Compound_2_IRC_Full E -988.511322177717
  Pd      0.144597     -0.058519     -0.156001
  O       1.454713      0.720644      1.068912
  C       1.440854      2.019106      1.088762
  O       0.584184      2.713441      0.569358
  C       2.621959      2.617429      1.822582
  H       2.404206      3.638478      2.132203
  H       3.480588      2.641963      1.146564
  H       2.911659      2.021448      2.689160
  N      -1.433627     -0.978256     -1.171813
  C      -1.193784     -2.433759     -1.381481
  H      -0.374444     -2.561906     -2.104979
  H      -2.108495     -2.907322     -1.756752
  H      -0.920512     -2.926243     -0.433113
  C      -1.837843     -0.330534     -2.444933
  H      -1.935903      0.761918     -2.302242
  H      -2.802050     -0.735663     -2.774807
  H      -1.074807     -0.525914     -3.216460
  C      -1.684788     -0.417230      1.180450
  C      -1.046319     -1.421573      1.952459
  C      -0.435384     -1.100013      3.156832
  C      -0.457960      0.218653      3.620075
  C      -1.079123      1.220893      2.879243
  C      -1.685421      0.909532      1.666777
  H       0.022918      0.463861      4.563496
  H      -1.076455      2.250492      3.226869
  H      -1.064219     -2.457269      1.617148
  H       0.059105     -1.876966      3.735648
  H      -2.164307      1.693800      1.086547
  C      -2.451825     -0.751504     -0.091073
  H      -3.102908      0.120172     -0.369346
  H      -3.124720     -1.646593      0.032572
  O       1.548870      0.371920     -1.561323
  C       1.776438     -0.381597     -2.676433
  O       1.078954     -1.407883     -3.222993
  C       3.089053      0.126236     -3.298334
  H       3.209105     -0.274504     -4.302979
  H       3.939404     -0.210887     -2.682693
  H       3.130695      1.224967     -3.323745
38
Coordinates from ORCA-job reaction-1-cineb10_optts_Compound_2_IRC_Full E -988.546885445358
  Pd      0.142088     -0.073060     -0.138386
  O       1.453900      0.725622      1.074978
  C       1.460675      2.021139      1.044341
  O       0.635017      2.704043      0.465313
  C       2.621853      2.633677      1.797409
  H       2.409107      3.668513      2.055864
  H       3.505795      2.618889      1.157289
  H       2.867791      2.070992      2.696749
  N      -1.423749     -1.010140     -1.161595
  C      -1.099688     -2.386006     -1.568873
  H      -0.356756     -2.358005     -2.358923
  H      -1.999815     -2.895708     -1.928831
  H      -0.700501     -2.943527     -0.722745
  C      -1.944625     -0.246694     -2.307067
  H      -2.140036      0.781814     -2.007320
  H      -2.876443     -0.694429     -2.668019
  H      -1.203848     -0.247441     -3.099295
  C      -1.662723     -0.524498      1.206145
  C      -1.056296     -1.433185      2.097436
  C      -0.482724     -0.985629      3.266891
  C      -0.510577      0.371637      3.582668
  C      -1.099403      1.279432      2.726491
  C      -1.668797      0.839659      1.535279
  H      -0.061250      0.714729      4.504945
  H      -1.109096      2.333968      2.961384
  H      -1.061114     -2.491626      1.866176
  H      -0.011704     -1.689319      3.939112
  H      -2.162122      1.553404      0.886817
  C      -2.387775     -1.004211     -0.031057
  H      -3.216055     -0.334493     -0.263271
  H      -2.810508     -2.000270      0.115921
  O       1.658304     -0.003525     -1.430534
  C       1.761949     -0.330168     -2.669803
  O       0.898225     -0.815647     -3.382329
  C       3.149342     -0.037186     -3.216268
  H       3.247190     -0.395510     -4.238116
  H       3.914209     -0.502488     -2.594740
  H       3.337148      1.036984     -3.197974
38
Coordinates from ORCA-job reaction-1-cineb10_optts_Compound_2_IRC_Full E -988.512198376375
  Pd      0.139579     -0.087601     -0.120771
  O       1.453088      0.730600      1.081044
  C       1.480496      2.023172      0.999920
  O       0.685849      2.694645      0.361269
  C       2.621748      2.649925      1.772235
  H       2.414008      3.698548      1.979525
  H       3.531002      2.595815      1.168014
  H       2.823923      2.120537      2.704337
  N      -1.413870     -1.042024     -1.151378
  C      -1.005592     -2.338252     -1.756266
  H      -0.339068     -2.154104     -2.612867
  H      -1.891135     -2.884093     -2.100910
  H      -0.480490     -2.960811     -1.012377
  C      -2.051407     -0.162855     -2.169202
  H      -2.344169      0.801711     -1.712398
  H      -2.950836     -0.653194     -2.561231
  H      -1.332890      0.031031     -2.982131
  C      -1.640658     -0.631765      1.231841
  C      -1.066272     -1.444797      2.242413
  C      -0.530064     -0.871244      3.376950
  C      -0.563193      0.524621      3.545262
  C      -1.119683      1.337971      2.573738
  C      -1.652174      0.769787      1.403782
  H      -0.145418      0.965597      4.446394
  H      -1.141736      2.417444      2.695899
  H      -1.058008     -2.525982      2.115205
  H      -0.082513     -1.501671      4.142576
  H      -2.159936      1.413008      0.687087
  C      -2.323724     -1.256918      0.028959
  H      -3.329203     -0.789157     -0.157197
  H      -2.496297     -2.353946      0.199271
  O       1.767739     -0.378970     -1.299745
  C       1.747460     -0.278740     -2.663173
  O       0.717497     -0.223410     -3.541666
  C       3.209632     -0.200609     -3.134203
  H       3.285276     -0.516517     -4.173254
  H       3.889014     -0.794089     -2.506786
  H       3.543601      0.849000     -3.072204
38
Coordinates from ORCA-job reaction-1-cineb10_optts_Compound_2_IRC_Full E -988.534865240807
  Pd      0.142299     -0.088540     -0.120467
  O       1.452930      0.730836      1.080344
  C       1.479730      2.023790      0.999374
  O       0.686999      2.693668      0.361966
  C       2.621978      2.649996      1.772353
  H       2.414141      3.698198      1.979445
  H       3.530645      2.595901      1.168283
  H       2.823805      2.120788      2.703877
  N      -1.415325     -1.043773     -1.152004
  C      -1.004147     -2.336914     -1.756183
  H      -0.341658     -2.154134     -2.609237
  H      -1.890878     -2.883833     -2.100967
  H      -0.482150     -2.958006     -1.014807
  C      -2.049782     -0.161325     -2.168838
  H      -2.342621      0.797409     -1.714055
  H      -2.950403     -0.652601     -2.561192
  H      -1.335415      0.029805     -2.978223
  C      -1.640722     -0.631590      1.233079
  C      -1.066531     -1.443130      2.242044
  C      -0.530535     -0.869889      3.376347
  C      -0.563889      0.524091      3.543804
  C      -1.119440      1.336456      2.574023
  C      -1.651751      0.768462      1.404733
  H      -0.146013      0.965005      4.445097
  H      -1.141639      2.415598      2.695761
  H      -1.058053     -2.524326      2.115426
  H      -0.083324     -1.500423      4.141243
  H      -2.159511      1.412232      0.688179
  C      -2.327475     -1.259651      0.027248
  H      -3.321661     -0.792674     -0.156152
  H      -2.494831     -2.345852      0.197609
  O       1.754779     -0.376191     -1.332025
  C       1.720797     -0.278033     -2.669911
  O       0.763270     -0.226167     -3.498492
  C       3.204694     -0.199432     -3.135842
  H       3.285776     -0.516270     -4.173155
  H       3.885938     -0.792771     -2.508203
  H       3.542167      0.846142     -3.072366
38
Coordinates from ORCA-job reaction-1-cineb10_optts_Compound_2_IRC_Full E -988.544179544451
  Pd      0.146576     -0.091121     -0.122231
  O       1.453431      0.731047      1.078994
  C       1.480415      2.023432      0.999770
  O       0.687150      2.693668      0.361720
  C       2.621920      2.650026      1.772329
  H       2.414356      3.697829      1.979385
  H       3.530239      2.596015      1.168581
  H       2.823657      2.121067      2.703355
  N      -1.417225     -1.045491     -1.152294
  C      -1.005275     -2.334913     -1.755724
  H      -0.344642     -2.154049     -2.604750
  H      -1.889851     -2.883234     -2.101075
  H      -0.483987     -2.954067     -1.017809
  C      -2.048722     -0.162690     -2.167425
  H      -2.340373      0.792321     -1.715788
  H      -2.949119     -0.651121     -2.561225
  H      -1.338433      0.028307     -2.973489
  C      -1.641979     -0.632183      1.233304
  C      -1.066872     -1.441225      2.241654
  C      -0.531282     -0.868301      3.375255
  C      -0.564382      0.523429      3.542760
  C      -1.119571      1.334645      2.573656
  C      -1.651475      0.766906      1.405998
  H      -0.147058      0.963979      4.442801
  H      -1.141458      2.412559      2.695546
  H      -1.058111     -2.521480      2.115828
  H      -0.084609     -1.498370      4.139122
  H      -2.158664      1.410798      0.690156
  C      -2.327375     -1.260264      0.025873
  H      -3.312786     -0.797036     -0.155232
  H      -2.493197     -2.336581      0.195321
  O       1.730389     -0.372439     -1.363530
  C       1.722318     -0.277250     -2.667717
  O       0.796740     -0.228351     -3.459854
  C       3.196327     -0.198761     -3.137139
  H       3.286695     -0.516051     -4.173845
  H       3.879876     -0.790398     -2.511015
  H       3.539635      0.842422     -3.072652
38
Coordinates from ORCA-job reaction-1-cineb10_optts_Compound_2_IRC_Full E -988.547532116183
  Pd      0.149068     -0.096599     -0.128119
  O       1.456046      0.730369      1.075806
  C       1.480893      2.023593      0.999293
  O       0.687941      2.693388      0.361719
  C       2.621620      2.650021      1.772285
  H       2.414649      3.697496      1.979340
  H       3.529779      2.596194      1.168922
  H       2.823495      2.121359      2.702812
  N      -1.418665     -1.046801     -1.151723
  C      -1.009828     -2.331786     -1.754484
  H      -0.348292     -2.152646     -2.598973
  H      -1.889023     -2.882571     -2.101639
  H      -0.486256     -2.948051     -1.021306
  C      -2.048279     -0.167971     -2.163978
  H      -2.336771      0.785698     -1.717110
  H      -2.947567     -0.649018     -2.561691
  H      -1.341135      0.025703     -2.967230
  C      -1.643557     -0.632851      1.233123
  C      -1.067799     -1.438532      2.240401
  C      -0.532624     -0.866124      3.373241
  C      -0.565179      0.522507      3.541164
  C      -1.120145      1.331619      2.572704
  C      -1.651715      0.764183      1.407511
  H      -0.148594      0.962495      4.439337
  H      -1.141188      2.407583      2.695057
  H      -1.058155     -2.516854      2.116569
  H      -0.086713     -1.494956      4.135624
  H      -2.157130      1.408320      0.693567
  C      -2.320262     -1.257256      0.024722
  H      -3.301992     -0.802143     -0.154893
  H      -2.490774     -2.326183      0.191945
  O       1.698137     -0.368763     -1.373980
  C       1.751208     -0.275622     -2.659387
  O       0.809966     -0.229031     -3.437239
  C       3.192952     -0.198966     -3.139133
  H       3.286605     -0.515626     -4.175040
  H       3.869330     -0.786472     -2.516117
  H       3.534935      0.837484     -3.073285
38
Coordinates from ORCA-job reaction-1-cineb10_optts_Compound_2_IRC_Full E -988.547927292380
  Pd      0.146227     -0.098839     -0.130090
  O       1.458359      0.729287      1.071528
  C       1.481263      2.022628      0.997994
  O       0.688357      2.693438      0.361714
  C       2.621377      2.649935      1.772204
  H       2.414743      3.697543      1.979368
  H       3.529621      2.596345      1.169093
  H       2.823395      2.121393      2.702696
  N      -1.417911     -1.047078     -1.151659
  C      -1.012764     -2.330337     -1.753976
  H      -0.350428     -2.149987     -2.596020
  H      -1.890603     -2.882456     -2.102491
  H      -0.487492     -2.944321     -1.022084
  C      -2.048090     -0.171212     -2.162028
  H      -2.334275      0.782120     -1.716304
  H      -2.947884     -0.648990     -2.562292
  H      -1.341014      0.022917     -2.963475
  C      -1.642794     -0.632332      1.233054
  C      -1.068420     -1.437147      2.239598
  C      -0.533811     -0.865201      3.371588
  C      -0.565841      0.522067      3.539978
  C      -1.120850      1.329753      2.572003
  C      -1.652330      0.762785      1.408216
  H      -0.149346      0.961828      4.437424
  H      -1.141166      2.404498      2.694416
  H      -1.058173     -2.514382      2.116875
  H      -0.088063     -1.492888      4.133359
  H      -2.156488      1.406906      0.695445
  C      -2.314869     -1.255044      0.024526
  H      -3.296020     -0.803597     -0.155622
  H      -2.487910     -2.321873      0.189827
  O       1.692603     -0.368001     -1.368325
  C       1.755379     -0.274641     -2.651546
  O       0.813919     -0.228031     -3.436250
  C       3.193745     -0.198703     -3.140117
  H       3.284910     -0.515592     -4.176727
  H       3.865996     -0.786869     -2.516997
  H       3.532789      0.837290     -3.073966
38
Coordinates from ORCA-job reaction-1-cineb10_optts_Compound_2_IRC_Full E -988.548030724775
  Pd      0.145781     -0.099004     -0.130138
  O       1.458710      0.729094      1.070615
  C       1.481436      2.022369      0.997741
  O       0.688335      2.693465      0.361660
  C       2.621325      2.649877      1.772158
  H       2.414729      3.697509      1.979354
  H       3.529612      2.596377      1.169131
  H       2.823366      2.121382      2.702678
  N      -1.417819     -1.047127     -1.151621
  C      -1.013211     -2.330188     -1.753946
  H      -0.350789     -2.149395     -2.595640
  H      -1.890997     -2.882375     -2.102633
  H      -0.487712     -2.943736     -1.022102
  C      -2.048090     -0.171675     -2.161798
  H      -2.333836      0.781559     -1.716023
  H      -2.947965     -0.649098     -2.562346
  H      -1.340813      0.022327     -2.962897
  C      -1.642575     -0.632246      1.232970
  C      -1.068486     -1.436963      2.239465
  C      -0.534010     -0.865063      3.371358
  C      -0.565956      0.522004      3.539791
  C      -1.120984      1.329513      2.571921
  C      -1.652429      0.762619      1.408290
  H      -0.149451      0.961743      4.437118
  H      -1.141195      2.404082      2.694281
  H      -1.058181     -2.514080      2.116881
  H      -0.088275     -1.492603      4.133019
  H      -2.156494      1.406745      0.695667
  C      -2.314083     -1.254771      0.024463
  H      -3.295042     -0.803656     -0.155820
  H      -2.487240     -2.321338      0.189496
  O       1.692201     -0.367938     -1.367150
  C       1.754219     -0.274388     -2.652020
  O       0.816017     -0.227862     -3.434721
  C       3.193832     -0.198704     -3.140034
  H       3.284342     -0.515538     -4.176792
  H       3.865661     -0.787043     -2.517103
  H       3.532476      0.837351     -3.074101
38
Coordinates from ORCA-job reaction-1-cineb10_optts_Compound_2_IRC_Full E -988.548107055624
  Pd      0.145211     -0.099196     -0.130185
  O       1.459248      0.728799      1.069252
  C       1.481638      2.022050      0.997290
  O       0.688342      2.693459      0.361617
  C       2.621253      2.649769      1.772081
  H       2.414692      3.697437      1.979323
  H       3.529610      2.596425      1.169189
  H       2.823317      2.121359      2.702647
  N      -1.417683     -1.047205     -1.151584
  C      -1.013864     -2.329972     -1.753910
  H      -0.351332     -2.148506     -2.595113
  H      -1.891602     -2.882229     -2.102841
  H      -0.488040     -2.942897     -1.022105
  C      -2.048081     -0.172348     -2.161473
  H      -2.333185      0.780751     -1.715575
  H      -2.948080     -0.649284     -2.562412
  H      -1.340489      0.021425     -2.962067
  C      -1.642244     -0.632126      1.232832
  C      -1.068570     -1.436721      2.239273
  C      -0.534299     -0.864878      3.371034
  C      -0.566123      0.521925      3.539527
  C      -1.121190      1.329186      2.571797
  C      -1.652578      0.762410      1.408374
  H      -0.149596      0.961630      4.436676
  H      -1.141250      2.403516      2.694075
  H      -1.058195     -2.513668      2.116874
  H      -0.088581     -1.492210      4.132539
  H      -2.156538      1.406529      0.695970
  C      -2.312972     -1.254401      0.024375
  H      -3.293623     -0.803688     -0.156131
  H      -2.486197     -2.320619      0.189021
  O       1.691647     -0.367833     -1.365758
  C       1.754025     -0.274102     -2.651306
  O       0.817684     -0.227509     -3.433527
  C       3.193790     -0.198687     -3.139858
  H       3.283452     -0.515454     -4.176850
  H       3.865219     -0.787343     -2.517230
  H       3.532024      0.837456     -3.074297
38
Coordinates from ORCA-job reaction-1-cineb10_optts_Compound_2_IRC_Full E -988.548207660477
  Pd      0.144312     -0.099436     -0.130229
  O       1.460266      0.728260      1.066760
  C       1.481998      2.021544      0.996395
  O       0.688344      2.693409      0.361541
  C       2.621129      2.649528      1.771907
  H       2.414580      3.697251      1.979238
  H       3.529639      2.596513      1.169302
  H       2.823208      2.121290      2.702578
  N      -1.417430     -1.047344     -1.151525
  C      -1.015000     -2.329611     -1.753877
  H      -0.352325     -2.146849     -2.594268
  H      -1.892750     -2.881892     -2.103203
  H      -0.488647     -2.941456     -1.022059
  C      -2.048052     -0.173512     -2.160936
  H      -2.332004      0.779342     -1.714695
  H      -2.948276     -0.649690     -2.562479
  H      -1.339808      0.019721     -2.960636
  C      -1.641624     -0.631921      1.232543
  C      -1.068680     -1.436344      2.238928
  C      -0.534805     -0.864584      3.370494
  C      -0.566428      0.521807      3.539070
  C      -1.121580      1.328675      2.571570
  C      -1.652840      0.762114      1.408465
  H      -0.149832      0.961457      4.435912
  H      -1.141386      2.402617      2.693689
  H      -1.058220     -2.513013      2.116819
  H      -0.089115     -1.491574      4.131733
  H      -2.156712      1.406192      0.696446
  C      -2.311088     -1.253816      0.024215
  H      -3.291140     -0.803611     -0.156736
  H      -2.484193     -2.319504      0.188207
  O       1.690898     -0.367671     -1.363446
  C       1.754226     -0.273622     -2.649492
  O       0.819963     -0.226760     -3.431704
  C       3.193614     -0.198642     -3.139391
  H       3.281643     -0.515284     -4.176811
  H       3.864567     -0.787947     -2.517428
  H       3.531239      0.837665     -3.074634
38
Coordinates from ORCA-job reaction-1-cineb10_optts_Compound_2_IRC_Full E -988.548295279517
  Pd      0.143547     -0.099517     -0.130232
  O       1.461548      0.727669      1.063840
  C       1.482398      2.021071      0.995206
  O       0.688324      2.693276      0.361450
  C       2.621004      2.649170      1.771639
  H       2.414357      3.696913      1.979078
  H       3.529746      2.596615      1.169445
  H       2.823032      2.121149      2.702461
  N      -1.417124     -1.047498     -1.151462
  C      -1.016215     -2.329241     -1.753895
  H      -0.353496     -2.144850     -2.593517
  H      -1.894170     -2.881347     -2.103585
  H      -0.489382     -2.939959     -1.021923
  C      -2.047974     -0.174748     -2.160408
  H      -2.330634      0.777825     -1.713555
  H      -2.948463     -0.650289     -2.562443
  H      -1.338835      0.017614     -2.959129
  C      -1.640868     -0.631696      1.232148
  C      -1.068724     -1.436020      2.238525
  C      -0.535355     -0.864320      3.369955
  C      -0.566783      0.521723      3.538576
  C      -1.122055      1.328247      2.571298
  C      -1.653129      0.761911      1.408443
  H      -0.150053      0.961327      4.435095
  H      -1.141618      2.401840      2.693220
  H      -1.058250     -2.512443      2.116663
  H      -0.089693     -1.490992      4.130939
  H      -2.157108      1.405912      0.696849
  C      -2.309149     -1.253308      0.024027
  H      -3.288457     -0.803269     -0.157510
  H      -2.481651     -2.318596      0.187360
  O       1.690529     -0.367551     -1.361094
  C       1.755328     -0.273119     -2.646569
  O       0.821313     -0.225671     -3.430068
  C       3.193265     -0.198575     -3.138589
  H       3.279136     -0.515052     -4.176455
  H       3.864106     -0.788748     -2.517604
  H       3.530401      0.837931     -3.074978
