! EnGrad PBEh-3c
%output 
xyzfile=True 
end 
%scf 
maxiter 250 
end
%output
Print[P_Hirshfeld] = 1
end
% maxcore
4000
*xyz 1 1
Sc   1.75051552  -1.44287071  -1.40452833 
C    0.38758206  -0.64524094   0.20830225 
N   -0.48918322  -1.37856707   0.91936634 
C   -0.83900870  -0.73671702   2.07474537 
C   -0.18221673   0.44826425   2.06654728 
N    0.59202462   0.47042075   0.93998113 
C    1.47030313   1.57350903   0.59651105 
H    1.71883441   2.21304569   1.44127342 
H    0.99974946   2.20576502  -0.15194124 
H    2.41665702   1.21232491   0.19927934 
C   -1.00806288  -2.69060555   0.56495363 
H   -0.54739604  -3.04470890  -0.35451079 
H   -2.08292313  -2.63713697   0.40685003 
H   -0.79133060  -3.40672374   1.35478930 
H   -1.51662400  -1.15439163   2.80048993 
H   -0.21750561   1.24040890   2.79506422 
C   -0.37673924   1.65116408  -2.82368458 
H   -1.12699299   1.50065419  -3.60473075 
H   -0.05624709   2.68848736  -2.91317023 
H   -0.87144628   1.47612927  -1.86919273 
H    0.77003349   0.45680268  -3.24640146 
*
