! EnGrad PBEh-3c
%output 
xyzfile=True 
end 
%scf 
maxiter 250 
end
%output
Print[P_Hirshfeld] = 1
end
% maxcore
4000
*xyz 1 1
Sc   1.71353563  -1.36728450  -1.45087285 
C    0.41267286  -0.64387725   0.21578678 
N   -0.48631795  -1.37276305   0.92708912 
C   -0.82910226  -0.72998820   2.07491931 
C   -0.17330180   0.42435910   2.10693118 
N    0.56466355   0.48574013   0.97031239 
C    1.46590215   1.60800670   0.57927861 
H    1.65333624   2.23314418   1.46006703 
H    1.00589642   2.19524497  -0.17068006 
H    2.41904940   1.22518627   0.25241193 
C   -1.00242712  -2.68195600   0.55777281 
H   -0.56013552  -3.01926811  -0.37208521 
H   -2.08009040  -2.63975359   0.43103371 
H   -0.76065427  -3.40868277   1.33503909 
H   -1.49530944  -1.17227527   2.81343474 
H   -0.18799908   1.22257597   2.82498691 
C   -0.28528284   1.51497464  -2.93470174 
H   -1.07006369   1.53355538  -3.62398477 
H    0.10198596   2.62520539  -2.92861022 
H   -0.81929275   1.49905203  -1.88818817 
H    0.41365468   0.47057805  -3.18074498 
*
