! EnGrad PBEh-3c
%output 
xyzfile=True 
end 
%scf 
maxiter 250 
end
%output
Print[P_Hirshfeld] = 1
end
% maxcore
4000
*xyz 1 1
Sc   1.63813768  -1.21938996  -1.54669427 
C    0.42139261  -0.60843169   0.26049517 
N   -0.46742589  -1.36372685   0.93195561 
C   -0.81630536  -0.75203244   2.09954720 
C   -0.14626185   0.41479973   2.14098573 
N    0.57848084   0.50611263   0.98343016 
C    1.42615123   1.61862668   0.62399497 
H    1.52634687   2.28025947   1.48023601 
H    1.00756024   2.19254425  -0.23087451 
H    2.42846111   1.25312501   0.35465789 
C   -0.98550425  -2.66898048   0.55198480 
H   -0.58526570  -2.96684995  -0.41242770 
H   -2.07459286  -2.64134877   0.47849050 
H   -0.69937505  -3.41091416   1.29355348 
H   -1.46235635  -1.21267028   2.83894120 
H   -0.13462838   1.19734658   2.90437223 
C   -0.27298196   1.53863371  -2.93045841 
H   -1.00939733   1.60018343  -3.70693644 
H    0.43031731   2.32373476  -2.99942738 
H   -0.68652383   1.51130303  -2.02391989 
H   -0.11292518   0.41375045  -3.09496717 
*
