! EnGrad PBEh-3c
%output 
xyzfile=True 
end 
%scf 
maxiter 250 
end
%output
Print[P_Hirshfeld] = 1
end
% maxcore
4000
*xyz -1 1
Pt  -0.78215553  -0.76372508   0.44886844 
Cl  -0.15145200  -0.33328644   2.65780529 
Cl  -2.62950249  -2.06912077   1.13488654 
Cl  -1.35395542  -1.18293502  -1.78410899 
C    0.85409727   0.97977786  -0.52808646 
H    1.41389487   1.64842245   0.12750140 
H    1.23665325  -0.53888257   0.21862576 
H    1.45036217   0.75051249  -1.41072322 
H   -0.03794212   1.50923347  -0.86475600 
*
