! EnGrad PBEh-3c
%output 
xyzfile=True 
end 
%scf 
maxiter 250 
end
%output
Print[P_Hirshfeld] = 1
end
% maxcore
4000
*xyz -1 1
Pt  -0.70437909  -0.78073137   0.44280266 
Cl  -0.16501186  -0.34133264   2.65401454 
Cl  -2.58169030  -2.03638777   1.12042764 
Cl  -1.35779419  -1.17133443  -1.76730354 
C    0.91083726   0.89838401  -0.49255529 
H    1.40980314   1.63067990   0.13357353 
H    1.08321254  -0.39444678   0.16545964 
H    1.45479308   0.73457753  -1.40175380 
H   -0.05092888   1.46091400  -0.85422656 
*
