! EnGrad PBEh-3c
%output 
xyzfile=True 
end 
%scf 
maxiter 250 
end
%output
Print[P_Hirshfeld] = 1
end
% maxcore
4000
*xyz -1 1
Pt  -0.67404133  -0.78302966   0.43360967 
Cl  -0.16086999  -0.33402009   2.65093769 
Cl  -2.54044556  -2.00519693   1.10953358 
Cl  -1.34274916  -1.16915072  -1.76435288 
C    0.88925547   0.85968631  -0.47183751 
H    1.40935753   1.59985171   0.14896182 
H    0.99137372  -0.29631342   0.11189851 
H    1.45325368   0.71761788  -1.39600426 
H   -0.02719067   1.41066327  -0.82173870 
*
