! EnGrad PBEh-3c
%output 
xyzfile=True 
end 
%scf 
maxiter 250 
end
%output
Print[P_Hirshfeld] = 1
end
% maxcore
4000
*xyz -1 1
Pt  -0.65659521  -0.77910786   0.42478880 
Cl  -0.15169402  -0.32170045   2.64596337 
Cl  -2.51238122  -1.98157356   1.10260937 
Cl  -1.32327154  -1.17125059  -1.76730780 
C    0.86797692   0.85184394  -0.46617190 
H    1.40496663   1.56815750   0.16332101 
H    0.94751421  -0.26182773   0.08467024 
H    1.44152457   0.70388245  -1.38648873 
H   -0.02065223   1.39114558  -0.79992534 
*
