! EnGrad PBEh-3c
%output 
xyzfile=True 
end 
%scf 
maxiter 250 
end
%output
Print[P_Hirshfeld] = 1
end
% maxcore
4000
*xyz -1 1
Pt  -0.66267842  -0.75821696   0.41464149 
Cl  -0.12279938  -0.28934570   2.63117799 
Cl  -2.46639626  -1.94456460   1.09354302 
Cl  -1.27358103  -1.17989855  -1.78465770 
C    0.83919624   0.85127279  -0.46339204 
H    1.39277230   1.50724401   0.19883818 
H    0.93440050  -0.27022875   0.05986872 
H    1.40717294   0.67582793  -1.36797304 
H   -0.05164140   1.40481295  -0.77962928 
*
