21
 energy: -42.020938668263 gnorm: 0.000455098905 xtb: 6.5.1 (579679a)
C           -4.00072143501405        1.64267827214822       -1.20368856018128
C           -4.98718039769230        0.67605704814014       -1.33318893632625
C           -5.15604347514886       -0.28028472413784       -0.34585254975184
C           -4.33670711731070       -0.27682425892128        0.77018653177002
C           -3.18140908275822        1.65639714780160       -0.08092590434375
C           -3.35024172040718        0.68963634647740        0.90386021559764
H           -3.86799969035109        2.39466783014566       -1.97953958405562
H           -5.62443259433340        0.66804892230671       -2.20600139783553
H           -5.92457935624021       -1.03268762032221       -0.44856450746691
H           -2.70199097187459        0.68752256437356        1.78021954992718
H           -4.46494438672312       -1.02857095175784        1.53635476970482
Pd          -1.75191385974129        3.01015982173352        0.11655862895684
O            0.28685669499832        3.95850907115266        0.09074168216963
O           -0.19299343920400        1.91985550967196       -0.57393969373665
O           -3.03483692617006        4.37721789303113        0.84995555251357
C           -2.84485621245413        4.52224093168334        2.03479561970839
O           -2.01929241178977        3.69109272423150        2.68074839872314
H           -1.89647174251739        3.87841257195306        3.62259495136143
C            0.62107449025887        2.84949973997525       -0.35700446743803
H            1.69049322044311        2.65622900380640       -0.57959869967483
H           -3.31733958595661        5.31784215654797        2.62312840038427
