! EnGrad PBEh-3c
%output 
xyzfile=True 
end 
%scf 
maxiter 250 
end
%output
Print[P_Hirshfeld] = 1
end
% maxcore
4000
*xyz 0 1
C   -1.76775421   0.17802880  -0.25528353 
C   -1.74191847  -0.72338743  -1.31240842 
C   -1.14636542  -1.96093729  -1.15241653 
C   -0.47646031  -2.25480363   0.02144023 
C   -1.19807751  -0.19235944   0.94849618 
C   -0.46956789  -1.35776110   1.08133233 
H   -2.31617150   1.09371462  -0.42652735 
H   -2.27557035  -0.51359098  -2.22873173 
H   -1.21956081  -2.70108458  -1.93956795 
H    0.07912128  -1.63064949   1.97102007 
H   -0.00960943  -3.22353463   0.12815022 
Pd   1.40035061   1.16902337   0.00086907 
O    2.67802098   0.90606619  -1.60529486 
O    2.63401376  -0.46629113   0.06306771 
O    0.33471901   2.89963263  -0.00500639 
C    0.12209478   3.00717647   1.21444526 
O    0.64048374   2.15972879   2.00619166 
H   -1.60347554   0.78880223   2.52495367 
C    3.05187205  -0.17266308  -1.08774631 
H    3.82489122  -0.79121007  -1.55818019 
H   -0.54103262   3.78608976   1.61120358 
*
