! EnGrad PBEh-3c
%output 
xyzfile=True 
end 
%scf 
maxiter 250 
end
%output
Print[P_Hirshfeld] = 1
end
% maxcore
4000
*xyz 0 1
C   -1.80454108   0.18360355  -0.23820006 
C   -1.87215395  -0.75693015  -1.22192785 
C   -1.33461487  -2.01737265  -1.05953239 
C   -0.59576794  -2.27751247   0.07421357 
C   -1.17446164  -0.17104689   0.94048291 
C   -0.49415295  -1.36533627   1.08059221 
H   -2.19586227   1.17363478  -0.41640413 
H   -2.38115545  -0.51783484  -2.11544903 
H   -1.49879648  -2.79509732  -1.80857976 
H    0.12910586  -1.57414569   1.93615010 
H   -0.13229531  -3.21801938   0.19688605 
Pd   1.48257471   1.24020187   0.10366451 
O    2.77589548   1.03861321  -1.53652529 
O    2.59700454  -0.43122534   0.03028583 
O    0.39597270   2.87821838  -0.00679153 
C    0.12793331   2.95527023   1.22924859 
O    0.60110183   2.10536670   2.01693946 
H   -1.21094715   0.47497009   1.76681085 
C    3.14879872  -0.04733261  -1.03729657 
H    3.95698384  -0.63853516  -1.48802160 
H   -0.53580208   3.76914932   1.56185024 
*
