! EnGrad PBEh-3c
%output 
xyzfile=True 
end 
%scf 
maxiter 250 
end
%output
Print[P_Hirshfeld] = 1
end
% maxcore
4000
*xyz 0 1
C   -1.81030857   0.17940134  -0.25899693 
C   -1.88954976  -0.77087451  -1.23191910 
C   -1.35320307  -2.02194493  -1.05004352 
C   -0.60808090  -2.29834354   0.06784694 
C   -1.16469808  -0.16983746   0.93351944 
C   -0.48860466  -1.38559660   1.07209013 
H   -2.19100392   1.18391044  -0.40571112 
H   -2.39502638  -0.51251031  -2.11357450 
H   -1.51605485  -2.78723768  -1.78572254 
H    0.12877207  -1.56557706   1.94436440 
H   -0.13514251  -3.22456793   0.20585378 
Pd   1.49008179   1.24547111   0.10217365 
O    2.77828614   1.05042560  -1.52580063 
O    2.60369852  -0.42828323   0.03329720 
O    0.40414057   2.88383548  -0.00692953 
C    0.13211815   2.94931513   1.23038782 
O    0.59639983   2.10077373   2.01414690 
H   -1.17983642   0.47792728   1.73711831 
C    3.15264025  -0.03936614  -1.03313339 
H    3.96420539  -0.62303267  -1.47920466 
H   -0.53558289   3.76837952   1.56115495 
*
