! EnGrad PBEh-3c
%output 
xyzfile=True 
end 
%scf 
maxiter 250 
end
%output
Print[P_Hirshfeld] = 1
end
% maxcore
4000
*xyz 0 1
C   -1.81061607   0.17781111  -0.26459446 
C   -1.91750241  -0.78577078  -1.23554290 
C   -1.38651301  -2.03401443  -1.03724925 
C   -0.62946219  -2.32126163   0.06763296 
C   -1.14892726  -0.18366249   0.90227836 
C   -0.48844650  -1.39205672   1.06734154 
H   -2.17921229   1.19650110  -0.39387099 
H   -2.42430624  -0.50710675  -2.11817246 
H   -1.55275485  -2.78780500  -1.75658825 
H    0.12915406  -1.55421173   1.94948403 
H   -0.14109814  -3.24553476   0.21835108 
Pd   1.50278504   1.25323552   0.10347780 
O    2.78599259   1.07246479  -1.50882915 
O    2.61218489  -0.42291960   0.03717244 
O    0.41851111   2.89110142  -0.00477271 
C    0.13432561   2.94534122   1.23325205 
O    0.58876991   2.09249455   2.00924384 
H   -1.12152437   0.47940986   1.67835371 
C    3.16156867  -0.02330328  -1.02441301 
H    3.98065105  -0.59607791  -1.46541035 
H   -0.53284986   3.76336431   1.55775265 
*
