! EnGrad PBEh-3c
%output 
xyzfile=True 
end 
%scf 
maxiter 250 
end
%output
Print[P_Hirshfeld] = 1
end
% maxcore
4000
*xyz 0 1
C   -1.79950126   0.17531423  -0.26263714 
C   -1.93992022  -0.78573347  -1.24110443 
C   -1.40728898  -2.04675348  -1.03482562 
C   -0.63782891  -2.33918176   0.07692399 
C   -1.13381095  -0.18956209   0.87961900 
C   -0.48980756  -1.38535213   1.06052721 
H   -2.17163967   1.19596116  -0.38953385 
H   -2.45582359  -0.50906329  -2.14467897 
H   -1.58029756  -2.80309322  -1.75293488 
H    0.12666810  -1.55042038   1.94693575 
H   -0.14076282  -3.28436213   0.21954473 
Pd   1.50223351   1.25666477   0.10999282 
O    2.79113005   1.08386628  -1.49870590 
O    2.61794101  -0.42015436   0.03786597 
O    0.42920269   2.89929471  -0.00136207 
C    0.13443610   2.94710617   1.23312178 
O    0.58463064   2.08870786   2.00387958 
H   -1.08716494   0.52093457   1.69275977 
C    3.17525271  -0.00847744  -1.01357801 
H    3.99344469  -0.58206661  -1.46153219 
H   -0.53058959   3.75872948   1.55760930 
*
