! EnGrad PBEh-3c
%output 
xyzfile=True 
end 
%scf 
maxiter 250 
end
%output
Print[P_Hirshfeld] = 1
end
% maxcore
4000
*xyz 0 1
C   -1.79439326   0.17807291  -0.26443344 
C   -1.95368724  -0.78262704  -1.24350242 
C   -1.41962095  -2.05338244  -1.03256667 
C   -0.64176185  -2.34896400   0.08557417 
C   -1.11975931  -0.16798464   0.89084023 
C   -0.48730508  -1.38340410   1.05947010 
H   -2.16347089   1.18860356  -0.39101364 
H   -2.47646730  -0.51733324  -2.16015963 
H   -1.60310095  -2.82521015  -1.76058462 
H    0.12405029  -1.54972058   1.93678068 
H   -0.14702234  -3.30950368   0.21574940 
Pd   1.49947834   1.25692833   0.11688831 
O    2.79752176   1.09173434  -1.49263198 
O    2.61988108  -0.41851985   0.03745197 
O    0.43582792   2.90424988   0.00057233 
C    0.13362013   2.95059823   1.23430228 
O    0.58232349   2.08781101   2.00111292 
H   -1.06691191   0.53896067   1.69483469 
C    3.18765598   0.00145804  -1.00644414 
H    4.00433999  -0.57317649  -1.46061702 
H   -0.52999335   3.75606987   1.55790358 
*
