! EnGrad PBEh-3c
%output 
xyzfile=True 
end 
%scf 
maxiter 250 
end
%output
Print[P_Hirshfeld] = 1
end
% maxcore
4000
*xyz 0 1
C   -1.76921119   0.18311015  -0.23992395 
C   -1.77289706  -0.74764041  -1.30134633 
C   -1.18866931  -1.99146392  -1.14929470 
C   -0.50363366  -2.27054599   0.01870083 
C   -1.21171390  -0.08078272   1.08603978 
C   -0.47752761  -1.33878406   1.08123298 
H   -2.28295401   1.11633368  -0.43104663 
H   -2.31084598  -0.51988395  -2.22132895 
H   -1.29618713  -2.73836582  -1.91687897 
H    0.09848694  -1.62066520   1.95737973 
H   -0.03789007  -3.24583155   0.13821211 
Pd   1.40527098   1.20772609   0.08558690 
O    2.69820611   0.92689836  -1.60449869 
O    2.59350791  -0.45666664   0.03804959 
O    0.35223029   2.88780868  -0.04136207 
C    0.12610501   2.97396253   1.23854178 
O    0.63450655   2.14458480   2.00250280 
H   -1.49888374   0.66728859   2.28203559 
C    3.11781645  -0.11925981  -1.06110301 
H    3.86188913  -0.76697355  -1.55756360 
H   -0.54107470   3.78724204   1.59565604 
*
