! EnGrad PBEh-3c
%output 
xyzfile=True 
end 
%scf 
maxiter 250 
end
%output
Print[P_Hirshfeld] = 1
end
% maxcore
4000
*xyz 0 1
C   -1.76549269   0.19713455  -0.16581023 
C   -1.82519689  -0.74422039  -1.23118516 
C   -1.27909382  -2.02144600  -1.10920279 
C   -0.56057897  -2.24979375   0.06332761 
C   -1.20786687  -0.06104892   1.10601715 
C   -0.50892043  -1.28195772   1.10373994 
H   -2.22000864   1.14404737  -0.44585588 
H   -2.36485081  -0.53141816  -2.17378012 
H   -1.43873718  -2.80645215  -1.87249003 
H    0.12698334  -1.60271858   1.91981794 
H   -0.10128284  -3.25206423   0.16485110 
Pd   1.44847694   1.22441060   0.11207808 
O    2.75968759   1.00030269  -1.57085533 
O    2.57997569  -0.44307789   0.02552986 
O    0.37496559   2.87025271  -0.00391339 
C    0.12221049   2.96186680   1.23827813 
O    0.60887751   2.13594668   2.00199079 
H   -1.30557006   0.45233949   1.83690012 
C    3.14853271  -0.06823893  -1.04322568 
H    3.93266874  -0.69193793  -1.52144809 
H   -0.53408940   3.76869045   1.56779339 
*
