! EnGrad PBEh-3c
%output 
xyzfile=True 
end 
%scf 
maxiter 250 
end
%output
Print[P_Hirshfeld] = 1
end
% maxcore
4000
*xyz 0 1
C   -1.77680959   0.19543589  -0.18923299 
C   -1.82458941  -0.74069144  -1.23111013 
C   -1.27645792  -2.01229690  -1.10157369 
C   -0.55938015  -2.25010208   0.06552577 
C   -1.19708961  -0.12411377   1.01983318 
C   -0.50117960  -1.30845203   1.10031489 
H   -2.22367339   1.14225046  -0.43755527 
H   -2.35680907  -0.52666280  -2.16371131 
H   -1.42818153  -2.79447185  -1.86770643 
H    0.12123008  -1.59922986   1.92629715 
H   -0.09946201  -3.23761925   0.16809994 
Pd   1.45198347   1.22071860   0.09633452 
O    2.75506193   0.99882549  -1.56674197 
O    2.58995371  -0.44281330   0.03126039 
O    0.37490144   2.87480840  -0.00739508 
C    0.12273683   2.96664863   1.23643838 
O    0.61079100   2.13113165   2.00701414 
H   -1.31940820   0.50480142   1.91212843 
C    3.13638999  -0.07678874  -1.04865871 
H    3.92584516  -0.69015648  -1.51705614 
H   -0.53546997   3.77085530   1.57089857 
*
