! EnGrad PBEh-3c
%output 
xyzfile=True 
end 
%scf 
maxiter 250 
end
%output
Print[P_Hirshfeld] = 1
end
% maxcore
4000
*xyz -1 1
Pt  -1.03298997  -0.90147725   0.54979701 
Cl  -0.26276883  -0.61969496   2.75401732 
Cl  -2.72219372  -2.32634305   1.16853556 
Cl  -1.67283732  -1.06003519  -1.69807135 
C    1.06372445   1.03316340  -0.59974977 
H    1.44809710   1.92172125  -0.10804323 
H    1.32521650  -0.02660355   0.38308787 
H    1.74540703   0.69709456  -1.38310806 
H    0.10834474   1.28216875  -1.06645746 
*
