! EnGrad PBEh-3c
%output 
xyzfile=True 
end 
%scf 
maxiter 250 
end
%output
Print[P_Hirshfeld] = 1
end
% maxcore
4000
*xyz -1 1
Pt  -1.03393195  -0.91491820   0.55312585 
Cl  -0.26227173  -0.60054240   2.72653357 
Cl  -2.68860390  -2.28171980   1.15975993 
Cl  -1.64013817  -1.06383506  -1.68767483 
C    1.12905531   0.90145678  -0.48888983 
H    1.45233252   1.89793882  -0.08155344 
H    1.23622953   0.09051671   0.22380372 
H    1.71875160   0.71128190  -1.38496446 
H    0.08597661   1.25979106  -1.02014778 
*
