! EnGrad PBEh-3c
%output 
xyzfile=True 
end 
%scf 
maxiter 250 
end
%output
Print[P_Hirshfeld] = 1
end
% maxcore
4000
*xyz -1 1
Pt  -1.03520273  -0.91438954   0.55171768 
Cl  -0.26235681  -0.60043984   2.72418074 
Cl  -2.68923041  -2.28216231   1.16082571 
Cl  -1.63927487  -1.06350568  -1.68615545 
C    1.11128616   0.93252446  -0.51001221 
H    1.45301273   1.88561061  -0.08044166 
H    1.23142791   0.09136351   0.22392605 
H    1.72125853   0.70846966  -1.38259751 
H    0.10580872   1.24254089  -1.00145290 
*
