! EnGrad PBEh-3c
%output 
xyzfile=True 
end 
%scf 
maxiter 250 
end
%output
Print[P_Hirshfeld] = 1
end
% maxcore
4000
*xyz -1 1
Pt  -1.03157369  -0.91138679   0.54480440 
Cl  -0.25964191  -0.58406674   2.69810741 
Cl  -2.68470223  -2.26540467   1.16634627 
Cl  -1.61312237  -1.06557170  -1.68021711 
C    1.12112247   0.97765975  -0.54965027 
H    1.47112599   1.84294872  -0.04086652 
H    1.15583748   0.13570095   0.15522117 
H    1.72132204   0.70484012  -1.38278067 
H    0.10968110   1.16547789  -0.91086392 
*
