! EnGrad PBEh-3c
%output 
xyzfile=True 
end 
%scf 
maxiter 250 
end
%output
Print[P_Hirshfeld] = 1
end
% maxcore
4000
*xyz -1 1
Pt  -0.88968326  -0.82082141   0.49167652 
Cl  -0.20224087  -0.44123799   2.70461871 
Cl  -2.67122733  -2.17056835   1.15065843 
Cl  -1.47800283  -1.14336816  -1.75530319 
C    0.94033138   1.00760369  -0.56159421 
H    1.43196837   1.76362849   0.04698938 
H    1.29579763  -0.36047570   0.28509309 
H    1.56066321   0.73854280  -1.41968447 
H    0.01239368   1.42669209  -0.94244333 
*
