! EnGrad PBEh-3c
%output 
xyzfile=True 
end 
%scf 
maxiter 250 
end
%output
Print[P_Hirshfeld] = 1
end
% maxcore
4000
*xyz -1 1
Pt  -0.86679025  -0.82785192   0.49048029 
Cl  -0.20072184  -0.42921100   2.68942411 
Cl  -2.64250956  -2.13731185   1.14146018 
Cl  -1.45809279  -1.14364799  -1.74847671 
C    0.98399814   0.93172931  -0.52187427 
H    1.43103494   1.74006237   0.06274034 
H    1.21527317  -0.28161035   0.21617985 
H    1.54417944   0.73995285  -1.41187592 
H   -0.00778494   1.40789110  -0.91778232 
*
