! EnGrad PBEh-3c
%output 
xyzfile=True 
end 
%scf 
maxiter 250 
end
%output
Print[P_Hirshfeld] = 1
end
% maxcore
4000
*xyz -1 1
Pt  -0.82471271  -0.83104623   0.47991925 
Cl  -0.19167992  -0.40097917   2.66589810 
Cl  -2.59740463  -2.08073633   1.12781991 
Cl  -1.41725127  -1.14851099  -1.74290835 
C    0.97482695   0.84132001  -0.45640660 
H    1.43236117   1.68724727   0.09444472 
H    1.09041187  -0.15952748   0.09969219 
H    1.52591619   0.73412418  -1.41502840 
H    0.00386277   1.35841104  -0.85250859 
*
