! EnGrad PBEh-3c
%output 
xyzfile=True 
end 
%scf 
maxiter 250 
end
%output
Print[P_Hirshfeld] = 1
end
% maxcore
4000
*xyz -1 1
Pt  -0.81587926  -0.82914375   0.47389656 
Cl  -0.18680997  -0.39172441   2.66230275 
Cl  -2.58422869  -2.06660544   1.12572099 
Cl  -1.40458962  -1.15045027  -1.74438519 
C    0.95850790   0.86219259  -0.47386233 
H    1.43246744   1.65676016   0.10658028 
H    1.05504839  -0.12926313   0.07489215 
H    1.51791609   0.72604544  -1.40320884 
H    0.02296587   1.32296440  -0.82033804 
*
