! EnGrad PBEh-3c
%output 
xyzfile=True 
end 
%scf 
maxiter 250 
end
%output
Print[P_Hirshfeld] = 1
end
% maxcore
4000
*xyz -1 1
Pd  -2.13589393  -1.76186160   0.68521248 
Cl  -3.54099649  -3.27759990  -0.17746647 
Cl  -0.67762101  -4.29858480   1.25085477 
Cl  -3.93847019  -0.26179625   0.76402806 
N   -0.96809570  -0.13524767   1.43543001 
C   -1.28938065   0.43830122   2.58424037 
C   -0.76580567   1.66961972   3.00266840 
C    0.08113466   2.33925369   2.16391694 
C   -0.06965865   0.45035847   0.61978374 
C    0.44482789   1.74423484   0.94517133 
H    0.48747230   3.31150714   2.43545425 
H   -1.97130715  -0.10968307   3.22088108 
H   -1.07305680   2.08659466   3.95297012 
C    0.35696960  -0.30079719  -0.55318099 
C    1.33313767   2.41855159   0.04871647 
C    1.66020737   1.82180774  -1.11163104 
C    1.17663307   0.48953504  -1.43763198 
H    1.72851286   3.40187263   0.32159691 
H    2.34363991   2.33952911  -1.80097773 
C    0.01769128  -1.70262189  -0.82085526 
C    1.64461237  -0.06194480  -2.65042696 
C    0.36433896  -2.06853504  -2.11072020 
C    1.19193253  -1.31610951  -2.98724555 
H    2.33432484   0.48836379  -3.30241852 
H    1.57687819  -1.78717012  -3.88732000 
H   -0.33447939  -2.89087113  -0.10781984 
H    0.01668024  -3.02720416  -2.47659328 
*
