! EnGrad PBEh-3c
%output 
xyzfile=True 
end 
%scf 
maxiter 250 
end
%output
Print[P_Hirshfeld] = 1
end
% maxcore
4000
*xyz -1 1
Pd  -2.19188446  -1.77338228   0.73501282 
Cl  -3.59892696  -3.24430589  -0.12727809 
Cl  -0.80885195  -4.30714506   1.43183103 
Cl  -3.89229071  -0.15928139   0.59984485 
N   -0.96510465  -0.14975261   1.43977638 
C   -1.26407544   0.40917351   2.59274821 
C   -0.75299094   1.64033861   3.01684718 
C    0.08453073   2.32331078   2.17011186 
C   -0.06789284   0.45704648   0.62314100 
C    0.44134938   1.74438575   0.94696012 
H    0.47974576   3.28856814   2.44655145 
H   -1.93856647  -0.14473158   3.22140017 
H   -1.05417549   2.04720469   3.96333894 
C    0.34554556  -0.26550190  -0.58313119 
C    1.31513136   2.42369923   0.04582330 
C    1.65073014   1.84067483  -1.12983741 
C    1.17827883   0.52298657  -1.46254402 
H    1.69566168   3.40081308   0.31159906 
H    2.31011955   2.36752377  -1.81308545 
C    0.02584840  -1.72472093  -0.84051543 
C    1.65477892  -0.05491965  -2.67082968 
C    0.39926167  -2.06360816  -2.12456407 
C    1.23029814  -1.30988743  -3.00316623 
H    2.30651229   0.50255256  -3.32563582 
H    1.61447812  -1.78158898  -3.89462419 
H   -0.28757311  -2.95784730  -0.12187518 
H    0.08643515  -3.03187484  -2.44664195 
*
