! EnGrad PBEh-3c
%output 
xyzfile=True 
end 
%scf 
maxiter 250 
end
%output
Print[P_Hirshfeld] = 1
end
% maxcore
4000
*xyz -1 1
Pd  -2.08827388  -1.75838285   0.65117772 
Cl  -3.49758998  -3.30689185  -0.21698012 
Cl  -0.57855848  -4.29922970   1.11638838 
Cl  -3.97667404  -0.34355522   0.89372646 
N   -0.96908653  -0.12222004   1.43297169 
C   -1.30761474   0.46406691   2.57445018 
C   -0.77899773   1.69114136   2.99528109 
C    0.08232924   2.35604733   2.15537279 
C   -0.07289937   0.44223346   0.61106104 
C    0.44619350   1.74279515   0.94388306 
H    0.49448781   3.33208046   2.42818439 
H   -1.99768106  -0.08288616   3.22333500 
H   -1.08804858   2.11933960   3.94474553 
C    0.36365933  -0.33653117  -0.52423366 
C    1.34751177   2.42055948   0.05718232 
C    1.66785775   1.80452898  -1.10200141 
C    1.17223264   0.45758151  -1.41985786 
H    1.75585720   3.40364525   0.32959607 
H    2.37307443   2.31985853  -1.79172942 
C    0.01634320  -1.67892294  -0.80266862 
C    1.63363872  -0.06622612  -2.62975787 
C    0.33859519  -2.07245961  -2.10152918 
C    1.15844167  -1.31800157  -2.97201754 
H    2.36185398   0.48050528  -3.28838638 
H    1.54984556  -1.79255465  -3.88347551 
H   -0.37212675  -2.83254019  -0.10922792 
H   -0.04059748  -3.02531922  -2.50418945 
*
