! EnGrad PBEh-3c
%output 
xyzfile=True 
end 
%scf 
maxiter 250 
end
%output
Print[P_Hirshfeld] = 1
end
% maxcore
4000
*xyz -1 1
Pd  -2.15027429  -1.77046364   0.70288566 
Cl  -3.55956200  -3.26864165  -0.16220288 
Cl  -0.71926126  -4.30525628   1.31004075 
Cl  -3.92595503  -0.23142458   0.71494232 
N   -0.96636681  -0.13860775   1.43611680 
C   -1.28162269   0.43105199   2.58583901 
C   -0.76162895   1.66151401   3.00739191 
C    0.08284688   2.33630070   2.16582220 
C   -0.07057235   0.45133913   0.61811801 
C    0.44321322   1.74409183   0.94607333 
H    0.48571963   3.30600039   2.43948940 
H   -1.96167352  -0.12083963   3.22269922 
H   -1.06768492   2.07583917   3.95637036 
C    0.35190894  -0.29728297  -0.56049931 
C    1.32829780   2.42159900   0.04858755 
C    1.65720528   1.82791633  -1.11729325 
C    1.17383565   0.49630992  -1.44479006 
H    1.71976415   3.40295044   0.31898333 
H    2.33602025   2.34987941  -1.80544556 
C    0.02412102  -1.70714896  -0.82423357 
C    1.64732342  -0.05833386  -2.65464296 
C    0.37500263  -2.06701528  -2.11416247 
C    1.20127261  -1.31248787  -2.99160074 
H    2.32932915   0.49457727  -3.31210263 
H    1.58990927  -1.78619308  -3.89055760 
H   -0.32180314  -2.90645078  -0.12072352 
H    0.03609305  -3.02990920  -2.46996844 
*
