! EnGrad PBEh-3c
%output 
xyzfile=True 
end 
%scf 
maxiter 250 
end
%output
Print[P_Hirshfeld] = 1
end
% maxcore
4000
*xyz -1 1
Pd  -2.12644534  -1.75620965   0.67360034 
Cl  -3.52879805  -3.28348590  -0.18749538 
Cl  -0.65026136  -4.29420131   1.21196672 
Cl  -3.94669326  -0.28175190   0.79627977 
N   -0.96923166  -0.13303995   1.43497875 
C   -1.29447800   0.44306431   2.58318998 
C   -0.76854998   1.67494556   2.99956482 
C    0.08000964   2.34119394   2.16266510 
C   -0.06905830   0.44971414   0.62087820 
C    0.44588881   1.74432881   0.94457867 
H    0.48862388   3.31512533   2.43280296 
H   -1.97763692  -0.10235267   3.21968647 
H   -1.07658638   2.09366154   3.95073600 
C    0.36029469  -0.30310620  -0.54837250 
C    1.33631770   2.41654930   0.04880117 
C    1.66217988   1.81779410  -1.10791069 
C    1.17847111   0.48508361  -1.43292877 
H    1.73426119   3.40116446   0.32331416 
H    2.34864640   2.33272846  -1.79804215 
C    0.01346662  -1.69964739  -0.81863554 
C    1.64283108  -0.06431736  -2.64765684 
C    0.35733241  -2.06953360  -2.10845845 
C    1.18579565  -1.31848911  -2.98438399 
H    2.33760724   0.48428123  -3.29605558 
H    1.56831615  -1.78781208  -3.88519274 
H   -0.34280831  -2.88063454  -0.09934150 
H    0.00392508  -3.02542682  -2.48094613 
*
