! EnGrad PBEh-3c
%output 
xyzfile=True 
end 
%scf 
maxiter 250 
end
%output
Print[P_Hirshfeld] = 1
end
% maxcore
4000
*xyz 0 1
Lu   0.31994862   0.10201790  -0.06429488 
C    0.47936832   0.82049468   2.55688044 
C    1.45591791  -0.12777950   2.23429049 
C    2.37806205   0.48450461   1.38129071 
C    1.87949680   1.73774335   1.02229166 
C    0.68957643   1.93023405   1.73728673 
H    2.27568528   2.42782833   0.29584830 
H    0.10977623   2.83720215   1.76258321 
H   -0.27359356   0.73043058   3.32172625 
H    1.52663320  -1.10236089   2.68782433 
H    3.24432647   0.00354841   0.96241568 
C    0.93054367  -0.13218490  -2.49652743 
C   -0.33224748  -0.74583220  -2.47168949 
C    1.08188155  -2.03781055  -1.28906699 
C    1.82354170  -0.98099947  -1.83009078 
H    1.13889160   0.82154665  -2.95511021 
C   -0.24407485  -1.92906908  -1.73422865 
H   -1.19650905  -0.44517291  -3.03969764 
H    2.85770820  -0.76945282  -1.61424546 
H    1.44915602  -2.85766467  -0.69259499 
H   -1.03708104  -2.64806526  -1.60572592 
C   -2.31000745  -1.65327320   1.30382483 
H   -2.31210355  -1.39422182   2.36045871 
H   -2.26665702  -2.73381676   1.16884857 
H   -3.28181664  -1.39835795   0.86396206 
C   -1.93790340   2.01542654  -0.90814726 
H   -2.13801209   0.17100305   0.39830932 
H   -1.18277996   2.64742103  -1.37237723 
H   -2.57700730   2.64581866  -0.28681016 
H   -2.55073066   1.58084937  -1.69723723 
*
