! EnGrad PBEh-3c
%output 
xyzfile=True 
end 
%scf 
maxiter 250 
end
%output
Print[P_Hirshfeld] = 1
end
% maxcore
4000
*xyz 0 1
Lu   0.00854283   0.09675820  -0.01288688 
C    0.43255013   0.81986600   2.49115799 
C    1.41227033  -0.15043598   2.19950247 
C    2.30276208   0.41587928   1.25832756 
C    1.83404574   1.70601210   0.93045222 
C    0.67166159   1.95284236   1.70859047 
H    2.36382440   2.42237853   0.33145855 
H    0.10430775   2.87120768   1.71630082 
H   -0.36648010   0.70579120   3.22183050 
H    1.56430597  -1.08601747   2.70764786 
H    3.22936239  -0.01859049   0.93537396 
C    0.92271945  -0.07726484  -2.45335143 
C   -0.34394995  -0.71974752  -2.48586883 
C    1.05076363  -1.99499914  -1.20605142 
C    1.79955163  -0.88811837  -1.68229338 
H    1.21870122   0.77849507  -3.02010733 
C   -0.25177821  -1.88680038  -1.71848907 
H   -1.21416914  -0.34129686  -2.99508917 
H    2.84931873  -0.76037445  -1.60005774 
H    1.47823086  -2.84225410  -0.69215654 
H   -1.04791683  -2.61443332  -1.56374607 
C   -2.33183946  -1.23298238   1.09704216 
H   -2.24304167  -1.20243697   2.19863340 
H   -1.90142066  -2.22592573   0.89089577 
H   -3.41360658  -1.33104347   0.94565063 
C   -1.89331952   1.62579978  -0.68871534 
H   -2.07212812  -0.05926994   0.32483374 
H   -1.14117651   2.29400601  -1.13255703 
H   -2.48168988   2.34887377  -0.11009947 
H   -2.52987925   1.42003978  -1.55550891 
*
