! EnGrad PBEh-3c
%output 
xyzfile=True 
end 
%scf 
maxiter 250 
end
%output
Print[P_Hirshfeld] = 1
end
% maxcore
4000
*xyz 0 1
Lu   0.13846583   0.11925118  -0.05281964 
C    0.35780203   0.85106244   2.47402382 
C    1.35494869  -0.14672345   2.16955840 
C    2.29892171   0.42302475   1.26487434 
C    1.86972601   1.70932969   0.90994147 
C    0.67790374   2.00873658   1.63756424 
H    2.43479384   2.39849450   0.34071800 
H    0.17331312   2.90542238   1.65602967 
H   -0.39163907   0.78903940   3.13858736 
H    1.47350203  -1.04578627   2.68502862 
H    3.16665304  -0.06001908   0.94013806 
C    0.96917898  -0.08552438  -2.44362657 
C   -0.31553570  -0.64243652  -2.50688103 
C    1.05120762  -1.96445884  -1.18698395 
C    1.76217019  -0.87945277  -1.71407152 
H    1.30020954   0.77227008  -3.06134818 
C   -0.31601719  -1.85485233  -1.71275862 
H   -1.15527946  -0.28273767  -3.03529491 
H    2.86310332  -0.76488200  -1.55113797 
H    1.40764978  -2.78349637  -0.66657595 
H   -1.06066797  -2.52896898  -1.59550235 
C   -2.30631631  -1.11720354   1.03923359 
H   -2.17591155  -1.12252361   2.13626897 
H   -1.87847263  -2.04846001   0.73921778 
H   -3.42179949  -1.32497140   1.01182658 
C   -1.88882281   1.40944377  -0.55950613 
H   -2.19887351  -0.09267070   0.31697641 
H   -1.13264611   2.07978516  -1.00757276 
H   -2.45058087   2.08149285   0.10411000 
H   -2.57613928   1.23904569  -1.40073328 
*
