! EnGrad PBEh-3c
%output 
xyzfile=True 
end 
%scf 
maxiter 250 
end
%output
Print[P_Hirshfeld] = 1
end
% maxcore
4000
*xyz 0 1
Lu   0.04863164   0.10369860  -0.02520846 
C    0.40948598   0.82949191   2.48587110 
C    1.39458327  -0.14929045   2.19026298 
C    2.30157711   0.41808407   1.26034763 
C    1.84505518   1.70703577   0.92412346 
C    0.67358765   1.97008898   1.68667474 
H    2.38572261   2.41500891   0.33431563 
H    0.12559993   2.88176491   1.69770366 
H   -0.37424310   0.73147812   3.19614514 
H    1.53628767  -1.07360380   2.70066851 
H    3.21001290  -0.03137362   0.93684396 
C    0.93705492  -0.07981339  -2.45035075 
C   -0.33518250  -0.69589257  -2.49235232 
C    1.05090063  -1.98557568  -1.20016800 
C    1.78801728  -0.88544453  -1.69209879 
H    1.24385128   0.77657430  -3.03283253 
C   -0.27159968  -1.87694254  -1.71672089 
H   -1.19599825  -0.32322794  -3.00749498 
H    2.85357208  -0.76176529  -1.58496314 
H    1.45645249  -2.82412392  -0.68426344 
H   -1.05185130  -2.58806260  -1.57354473 
C   -2.32396408  -1.19725787   1.07920485 
H   -2.22232812  -1.17777905   2.17939034 
H   -1.89433986  -2.17116722   0.84409428 
H   -3.41613457  -1.32916988   0.96606977 
C   -1.89193202   1.55904135  -0.64884677 
H   -2.11123646  -0.06957602   0.32240930 
H   -1.13854438   2.22790640  -1.09399210 
H   -2.47209094   2.26637118  -0.04400337 
H   -2.54415316   1.36419256  -1.50775162 
*
