! EnGrad PBEh-3c
%output 
xyzfile=True 
end 
%scf 
maxiter 250 
end
%output
Print[P_Hirshfeld] = 1
end
% maxcore
4000
*xyz 0 1
Lu   0.13953467   0.12107375  -0.05625850 
C    0.39844416   0.86924241   2.43221971 
C    1.35293937  -0.11111450   2.16982313 
C    2.28670053   0.42583679   1.28418105 
C    1.86554546   1.70909437   0.93090567 
C    0.69505859   1.97486423   1.65077699 
H    2.44049575   2.40699371   0.33070581 
H    0.16765296   2.92673808   1.65441383 
H   -0.41097459   0.79471466   3.16025586 
H    1.46427600  -1.06218613   2.68879247 
H    3.18157267  -0.06718019   0.93954820 
C    0.96290691  -0.06874850  -2.47427982 
C   -0.31109351  -0.66412918  -2.49300524 
C    1.02088804  -1.95474010  -1.21558424 
C    1.80015733  -0.90207730  -1.70616729 
H    1.29899018   0.77027028  -3.05523033 
C   -0.27243477  -1.81899435  -1.72348074 
H   -1.15750209  -0.28094420  -3.04942979 
H    2.85540130  -0.76747945  -1.55421363 
H    1.41036439  -2.79723396  -0.65371916 
H   -1.08257458  -2.54108588  -1.59717291 
C   -2.33997132  -1.13814356   1.06103413 
H   -2.17576984  -1.13978385   2.15067207 
H   -1.90655481  -2.10810927   0.75436382 
H   -3.40209214  -1.32770805   1.01103253 
C   -1.88981771   1.43502810  -0.57700601 
H   -2.19157505  -0.08688936   0.33349515 
H   -1.13781171   2.10762669  -1.02872549 
H   -2.45328925   2.09242613   0.10244478 
H   -2.58085692   1.24223211  -1.40461913 
*
