! EnGrad PBEh-3c
%output 
xyzfile=True 
end 
%scf 
maxiter 250 
end
%output
Print[P_Hirshfeld] = 1
end
% maxcore
4000
*xyz 0 1
Lu   0.06465924   0.11136427  -0.04150580 
C    0.43553083   0.81856898   2.51311610 
C    1.47934186  -0.11127818   2.27584177 
C    2.34140890   0.43778617   1.30789015 
C    1.87151219   1.73967817   1.00312573 
C    0.70821015   1.97514296   1.76672960 
H    2.33320844   2.45575703   0.29611900 
H    0.08826693   2.88044735   1.74251754 
H   -0.31187855   0.72878378   3.29517765 
H    1.53519946  -1.13083535   2.70356862 
H    3.30124988  -0.02125426   0.95277600 
C    0.93602932  -0.13147560  -2.51844062 
C   -0.33904335  -0.73416285  -2.49878140 
C    1.08066091  -2.04825485  -1.28582664 
C    1.81105168  -0.93112989  -1.74647007 
H    1.17705871   0.82853936  -3.00040336 
C   -0.24601797  -1.91531749  -1.73943054 
H   -1.22058605  -0.39842198  -3.03891360 
H    2.90329387  -0.77602904  -1.62553578 
H    1.47314314  -2.88302647  -0.67498673 
H   -1.04075028  -2.63204766  -1.59379962 
C   -2.36197458  -1.51110318   1.26826257 
H   -2.30017571  -1.38198624   2.33969191 
H   -2.16165636  -2.67120078   1.11231397 
H   -3.37428023  -1.37308869   0.90008758 
C   -1.92412018   1.89755373  -0.84224526 
H   -2.00105417   0.03252754   0.39950308 
H   -1.16988039   2.60886800  -1.34599793 
H   -2.54620284   2.59017433  -0.24608035 
H   -2.54827166   1.54755422  -1.67379927 
*
