! EnGrad PBEh-3c
%output 
xyzfile=True 
end 
%scf 
maxiter 250 
end
%output
Print[P_Hirshfeld] = 1
end
% maxcore
4000
*xyz 0 1
Lu   0.14327766   0.10968915  -0.05011623 
C    0.44386214   0.82197924   2.52607778 
C    1.46761795  -0.13238369   2.27824667 
C    2.37886462   0.43971594   1.31870024 
C    1.88052932   1.75271788   1.00019625 
C    0.68844381   1.97777770   1.76320010 
H    2.31523823   2.44381323   0.29950491 
H    0.10167731   2.85988098   1.74720204 
H   -0.29897132   0.73158498   3.30276227 
H    1.53061360  -1.11462104   2.69431769 
H    3.27315063  -0.00887568   0.96122238 
C    0.93678099  -0.12075629  -2.52118313 
C   -0.35084865  -0.73862273  -2.49544495 
C    1.08260938  -2.06678272  -1.27542816 
C    1.83510757  -0.94053586  -1.77100203 
H    1.16583385   0.82277989  -2.98522271 
C   -0.24761206  -1.91418772  -1.74133039 
H   -1.20644052  -0.41360508  -3.03740779 
H    2.88264431  -0.77642619  -1.62321875 
H    1.46171877  -2.86687792  -0.68533285 
H   -1.04015521  -2.63683573  -1.59862233 
C   -2.37928797  -1.54035061   1.27010814 
H   -2.30271742  -1.38971368   2.35078496 
H   -2.19589084  -2.70816689   1.13081395 
H   -3.31905863  -1.38627682   0.90050610 
C   -1.93848182   1.92766782  -0.86094765 
H   -2.03910700   0.07562989   0.39855972 
H   -1.16980520   2.62729772  -1.35874979 
H   -2.55581989   2.60748500  -0.25735794 
H   -2.54803628   1.55815289  -1.67785013 
*
