! EnGrad PBEh-3c
%output 
xyzfile=True 
end 
%scf 
maxiter 250 
end
%output
Print[P_Hirshfeld] = 1
end
% maxcore
4000
*xyz 0 1
Lu   0.06418926   0.10951384  -0.03784170 
C    0.44210516   0.81283827   2.51860299 
C    1.48100339  -0.10673441   2.25953130 
C    2.32872809   0.44342639   1.31414700 
C    1.86533534   1.72976276   1.00363761 
C    0.71479727   1.96404848   1.75742196 
H    2.32868663   2.45326451   0.29861229 
H    0.08472106   2.87986216   1.74534137 
H   -0.31298084   0.72351640   3.29348500 
H    1.53994946  -1.12932837   2.70528444 
H    3.29737807  -0.01804958   0.95164796 
C    0.93292215  -0.13453854  -2.50695181 
C   -0.32922032  -0.73302831  -2.49440434 
C    1.08305662  -2.03202505  -1.28769554 
C    1.79984329  -0.93513015  -1.74577493 
H    1.17428558   0.82573098  -2.99859251 
C   -0.24476530  -1.92199080  -1.73507025 
H   -1.22586363  -0.39887962  -3.03635255 
H    2.89865360  -0.77390087  -1.62547433 
H    1.47533220  -2.88401030  -0.67671081 
H   -1.03978405  -2.63331359  -1.59075107 
C   -2.33449661  -1.52639679   1.26103842 
H   -2.30047136  -1.37039362   2.33427787 
H   -2.15305879  -2.63092909   1.10758447 
H   -3.39193702  -1.36850628   0.89282300 
C   -1.90763019   1.90590336  -0.84609721 
H   -2.00985923   0.02657105   0.40218263 
H   -1.17628227   2.59266481  -1.33457461 
H   -2.54360419   2.58628129  -0.24819040 
H   -2.54696818   1.54697286  -1.67606897 
*
