! EnGrad PBEh-3c
%output 
xyzfile=True 
end 
%scf 
maxiter 250 
end
%output
Print[P_Hirshfeld] = 1
end
% maxcore
4000
*xyz 0 1
Lu   0.01657241   0.10711112  -0.02778763 
C    0.43966372   0.80745771   2.51708719 
C    1.47848304  -0.11718126   2.26312032 
C    2.33031984   0.43312032   1.29505285 
C    1.86157524   1.73040176   0.98899027 
C    0.70806241   1.96909933   1.75792228 
H    2.33035788   2.45095938   0.30475894 
H    0.08111804   2.87906253   1.74532014 
H   -0.32032606   0.71478185   3.28596751 
H    1.54996012  -1.12626105   2.70700212 
H    3.29549405  -0.01527045   0.94998383 
C    0.93179645  -0.12501914  -2.50282977 
C   -0.33634309  -0.73342770  -2.49610511 
C    1.08352211  -2.03727821  -1.27535324 
C    1.80460643  -0.92115651  -1.72899143 
H    1.17620428   0.81915790  -3.00148290 
C   -0.24413703  -1.92160096  -1.73321778 
H   -1.23107408  -0.39283402  -3.02822510 
H    2.89368873  -0.77293548  -1.62740142 
H    1.48160241  -2.88314655  -0.68052624 
H   -1.03973902  -2.63427067  -1.58326374 
C   -2.33300569  -1.49959193   1.23866287 
H   -2.29669469  -1.35153908   2.32297151 
H   -2.11568647  -2.57692921   1.08773387 
H   -3.41160083  -1.36078551   0.89440205 
C   -1.89536216   1.88605743  -0.83701461 
H   -1.99646257  -0.00304718   0.40299253 
H   -1.17469221   2.56779193  -1.31684876 
H   -2.53351021   2.57078383  -0.24396955 
H   -2.54104342   1.54171090  -1.67191210 
*
