! EnGrad PBEh-3c
%output 
xyzfile=True 
end 
%scf 
maxiter 250 
end
%output
Print[P_Hirshfeld] = 1
end
% maxcore
4000
*xyz 0 1
Lu  -0.08448196   0.09034859   0.00422048 
C    0.44100155   0.79373194   2.51935661 
C    1.47567838  -0.14568777   2.24721834 
C    2.32536624   0.40808609   1.25397695 
C    1.83660530   1.71645159   0.95749504 
C    0.68105697   1.96365484   1.74915550 
H    2.32421803   2.44186885   0.31804473 
H    0.07023200   2.86064410   1.75018669 
H   -0.33856010   0.67856073   3.26592202 
H    1.58924860  -1.11565542   2.71374016 
H    3.27658875  -0.00096777   0.94062121 
C    0.91825769  -0.10713596  -2.47155526 
C   -0.35397902  -0.73663778  -2.48792770 
C    1.08963093  -2.03454159  -1.23578927 
C    1.79943896  -0.89194903  -1.68639195 
H    1.17377825   0.80196885  -3.00264379 
C   -0.24219460  -1.92480376  -1.72599998 
H   -1.24601437  -0.38233944  -2.99300683 
H    2.87197328  -0.76326181  -1.62779980 
H    1.50218570  -2.87722637  -0.69663706 
H   -1.03661635  -2.64400601  -1.55670874 
C   -2.35659389  -1.36552510   1.16410155 
H   -2.28176936  -1.27813974   2.26979229 
H   -1.98424782  -2.42048870   1.01308725 
H   -3.41647168  -1.34312824   0.89793774 
C   -1.88561708   1.80788636  -0.80124674 
H   -1.98408316  -0.05350476   0.38399736 
H   -1.14987090   2.48346614  -1.25532825 
H   -2.50478473   2.52323705  -0.23488951 
H   -2.51530316   1.52851991  -1.65675348 
*
