! EnGrad PBEh-3c
%output 
xyzfile=True 
end 
%scf 
maxiter 250 
end
%output
Print[P_Hirshfeld] = 1
end
% maxcore
4000
*xyz 0 1
Lu  -0.06455326   0.08936449   0.00310325 
C    0.44083377   0.80024708   2.51322916 
C    1.44743867  -0.15564745   2.23116333 
C    2.31941559   0.41119970   1.24837843 
C    1.83462281   1.71211638   0.93968476 
C    0.67073962   1.95596377   1.73668134 
H    2.33358140   2.43197908   0.32638875 
H    0.07898177   2.85939505   1.74029512 
H   -0.34793234   0.68025799   3.24899894 
H    1.58985229  -1.10306394   2.71266987 
H    3.25814638  -0.00386574   0.93691185 
C    0.91728834  -0.08891740  -2.46071814 
C   -0.35566046  -0.73627868  -2.48606670 
C    1.07008728  -2.02399665  -1.21743984 
C    1.80472610  -0.88412802  -1.68060582 
H    1.18640637   0.78921906  -3.00625883 
C   -0.24384635  -1.91442565  -1.72160957 
H   -1.23746757  -0.36796279  -2.98632231 
H    2.85816767  -0.76059081  -1.61919648 
H    1.49933677  -2.86491728  -0.69903970 
H   -1.03763540  -2.63712225  -1.55499799 
C   -2.33503908  -1.31517811   1.13210683 
H   -2.26976265  -1.24374007   2.23762085 
H   -1.94032475  -2.32396917   0.96606780 
H   -3.42123033  -1.33481240   0.91225804 
C   -1.89017598   1.73583814  -0.75560429 
H   -2.00971135  -0.05024488   0.35069218 
H   -1.14668825   2.40535857  -1.20239353 
H   -2.49412274   2.46270317  -0.19698350 
H   -2.51542691   1.49389575  -1.62268623 
*
