! EnGrad PBEh-3c
%output 
xyzfile=True 
end 
%scf 
maxiter 250 
end
%output
Print[P_Hirshfeld] = 1
end
% maxcore
4000
*xyz 0 1
Lu   0.02445179   0.09679204  -0.01423553 
C    0.42400875   0.81855175   2.50315906 
C    1.39983768  -0.15865620   2.18676808 
C    2.30368427   0.41700068   1.25601788 
C    1.82825635   1.70088684   0.92361020 
C    0.66552982   1.95569819   1.69827275 
H    2.36707904   2.41939809   0.33459588 
H    0.10892774   2.86395491   1.71389453 
H   -0.36323089   0.70435134   3.21037807 
H    1.56876258  -1.08012163   2.70843202 
H    3.21915444  -0.01730205   0.93390225 
C    0.92125505  -0.08018245  -2.43646701 
C   -0.34178571  -0.71597073  -2.48785801 
C    1.05391075  -1.98970464  -1.19101401 
C    1.78129546  -0.88351161  -1.68506173 
H    1.22366741   0.77797247  -3.02449162 
C   -0.26603934  -1.89174832  -1.71600456 
H   -1.21067615  -0.33722708  -2.98847820 
H    2.85182485  -0.75789888  -1.59634321 
H    1.47705470  -2.83494638  -0.69719871 
H   -1.04128485  -2.60964456  -1.56298382 
C   -2.33593763  -1.20427487   1.07984877 
H   -2.23941590  -1.18866740   2.18446161 
H   -1.87596542  -2.18627075   0.87154388 
H   -3.40312528  -1.32731319   0.95434732 
C   -1.89894173   1.59418088  -0.66825225 
H   -2.08340200  -0.05424136   0.30376289 
H   -1.14064561   2.25924359  -1.10781415 
H   -2.47793585   2.32807228  -0.09927316 
H   -2.52735838   1.40974614  -1.54247476 
*
