! EnGrad PBEh-3c
%output 
xyzfile=True 
end 
%scf 
maxiter 250 
end
%output
Print[P_Hirshfeld] = 1
end
% maxcore
4000
*xyz 0 1
Lu  -0.03685307   0.09167609  -0.00229293 
C    0.43559748   0.80594387   2.51009514 
C    1.43262427  -0.15658383   2.21734662 
C    2.31451969   0.41300508   1.25075598 
C    1.83264144   1.70862152   0.93468203 
C    0.66911823   1.95588112   1.72472781 
H    2.34400655   2.42806362   0.32894298 
H    0.08830156   2.86081417   1.73207872 
H   -0.35269356   0.68775633   3.23697934 
H    1.58328874  -1.09592382   2.71135096 
H    3.24601129  -0.00804739   0.93597520 
C    0.91852286  -0.08619891  -2.45317070 
C   -0.35134235  -0.72995843  -2.48662419 
C    1.06505281  -2.01332428  -1.20921558 
C    1.79743401  -0.88393618  -1.68199259 
H    1.19800276   0.78571889  -3.01193324 
C   -0.25075326  -1.90736801  -1.71986518 
H   -1.22912953  -0.35839721  -2.98699326 
H    2.85619365  -0.75975302  -1.61208408 
H    1.49240214  -2.85558973  -0.69846675 
H   -1.03877119  -2.62857063  -1.55748334 
C   -2.33531872  -1.28066276   1.11584306 
H   -2.26031812  -1.22660034   2.22107661 
H   -1.92029481  -2.28111462   0.93665003 
H   -3.41559567  -1.33247849   0.92535708 
C   -1.89290406   1.69175151  -0.72841855 
H   -2.03264538  -0.05148866   0.33608683 
H   -1.14480766   2.35988461  -1.17295850 
H   -2.48908505   2.42080329  -0.16657405 
H   -2.51914023   1.46770668  -1.59772278 
*
