! EnGrad PBEh-3c
%output 
xyzfile=True 
end 
%scf 
maxiter 250 
end
%output
Print[P_Hirshfeld] = 1
end
% maxcore
4000
*xyz -1 1
Pd  -2.36558733  -1.64280019   0.82210107 
Cl  -3.95082443  -3.10105842   0.05400629 
Cl  -1.20954338  -3.90658180   1.81468959 
Cl  -3.56747181   0.13561075   0.02823874 
N   -0.90232702  -0.25873058   1.43883626 
C   -1.18651535   0.25362225   2.62045718 
C   -0.69892073   1.48595116   3.05819540 
C    0.07921568   2.21139046   2.19497926 
C   -0.05974151   0.38594330   0.60548296 
C    0.41465012   1.66987890   0.94759967 
H    0.44148893   3.19300117   2.47661958 
H   -1.85798927  -0.31637546   3.24812480 
H   -0.96600445   1.85550268   4.03738674 
C    0.38764456  -0.25006569  -0.61027016 
C    1.21077483   2.40212201   0.01569274 
C    1.53373416   1.86179656  -1.17775623 
C    1.15899888   0.52242825  -1.50781066 
H    1.53610462   3.40179579   0.27480189 
H    2.11994034   2.43409940  -1.88652727 
C    0.13941551  -1.59853728  -0.91740148 
C    1.60880011  -0.04878046  -2.70740638 
C    0.61164008  -2.13442551  -2.09714581 
C    1.33962918  -1.36026886  -3.00280181 
H    2.18693238   0.54600184  -3.40424164 
H    1.69685133  -1.79386501  -3.92823584 
H   -0.14672678  -2.76962707  -0.05978767 
H    0.44582330  -3.17802821  -2.33783527 
*
