! EnGrad PBEh-3c
%output 
xyzfile=True 
end 
%scf 
maxiter 250 
end
%output
Print[P_Hirshfeld] = 1
end
% maxcore
4000
*xyz -1 1
Pd  -2.33260089  -1.74033952   0.82320221 
Cl  -3.89087241  -3.11373384   0.03123639 
Cl  -1.17065173  -3.91871396   1.74624274 
Cl  -3.61387285   0.11022895   0.10528216 
N   -0.92086939  -0.24365815   1.44662692 
C   -1.19454973   0.28339541   2.61915270 
C   -0.70600764   1.50564302   3.04612701 
C    0.07620899   2.22381381   2.19682028 
C   -0.05894493   0.39035786   0.61745528 
C    0.42360958   1.68917583   0.94497656 
H    0.44839317   3.20872756   2.47066731 
H   -1.87184218  -0.28801134   3.24260458 
H   -0.98109977   1.88535231   4.02812793 
C    0.36561334  -0.24415611  -0.59341092 
C    1.22669869   2.40151038   0.01608291 
C    1.55062294   1.86273110  -1.16206181 
C    1.16638534   0.52647849  -1.51522092 
H    1.56069019   3.40316546   0.28110280 
H    2.14958588   2.42353331  -1.87767862 
C    0.11782522  -1.81899111  -0.81193299 
C    1.61874719  -0.05079265  -2.70914502 
C    0.57997759  -2.10792227  -2.12060448 
C    1.31726569  -1.34818362  -3.00649799 
H    2.20524742   0.54306497  -3.39073552 
H    1.68732310  -1.79032030  -3.92582828 
H   -0.14521022  -2.63636237  -0.15821889 
H    0.39413993  -3.15395190  -2.34462942 
*
