! EnGrad PBEh-3c
%output 
xyzfile=True 
end 
%scf 
maxiter 250 
end
%output
Print[P_Hirshfeld] = 1
end
% maxcore
4000
*xyz -1 1
Pd  -2.32073718  -1.76653685   0.82664719 
Cl  -3.87852584  -3.12209737   0.02339187 
Cl  -1.16258577  -3.90833147   1.72273046 
Cl  -3.62194673   0.09769047   0.13048726 
N   -0.92383873  -0.24334514   1.44882095 
C   -1.20265447   0.28417666   2.61806871 
C   -0.70927611   1.51593341   3.05136659 
C    0.08074017   2.23254282   2.19170087 
C   -0.05916697   0.39522262   0.61993498 
C    0.42194985   1.68895594   0.94743714 
H    0.44943935   3.21172597   2.46868037 
H   -1.87535100  -0.27862488   3.24129418 
H   -0.98469578   1.89265428   4.02236392 
C    0.35987360  -0.28604835  -0.58686103 
C    1.22994353   2.40866156   0.02586752 
C    1.55757150   1.85636547  -1.17004775 
C    1.15664477   0.51756794  -1.50265727 
H    1.56724884   3.40142709   0.28232918 
H    2.15692360   2.41920057  -1.87363842 
C    0.14624282  -1.79559866  -0.83387249 
C    1.62117193  -0.05211760  -2.71048443 
C    0.55396182  -2.13256710  -2.09197500 
C    1.31267231  -1.33492403  -3.01192198 
H    2.21279026   0.54355923  -3.38809515 
H    1.68220321  -1.78953439  -3.92397826 
H   -0.15054783  -2.60624478  -0.17403689 
H    0.38236084  -3.14730602  -2.35335208 
*
