! EnGrad PBEh-3c
%output 
xyzfile=True 
end 
%scf 
maxiter 250 
end
%output
Print[P_Hirshfeld] = 1
end
% maxcore
4000
*xyz -1 1
Pd  -2.31719932  -1.76455282   0.82865451 
Cl  -3.87853967  -3.12910859   0.01966824 
Cl  -1.16054022  -3.90211789   1.71500640 
Cl  -3.62122876   0.08924756   0.14053065 
N   -0.92170097  -0.24474436   1.44939196 
C   -1.20569064   0.28478690   2.61774759 
C   -0.70909268   1.51929133   3.05049327 
C    0.08049284   2.23424764   2.19211034 
C   -0.06115601   0.39059807   0.61747137 
C    0.42118638   1.68734090   0.94699803 
H    0.44994629   3.21316516   2.46804875 
H   -1.87764409  -0.27661406   3.24225718 
H   -0.98597977   1.89527989   4.02178127 
C    0.36551948  -0.30558672  -0.58626648 
C    1.23126443   2.40742037   0.02484887 
C    1.55544675   1.85185935  -1.16786980 
C    1.14896589   0.50754047  -1.49262736 
H    1.56956571   3.40206457   0.28328241 
H    2.15923745   2.41739069  -1.87323262 
C    0.16240602  -1.73488274  -0.85669092 
C    1.61985510  -0.05083168  -2.70767704 
C    0.55551346  -2.13957247  -2.08976588 
C    1.30449556  -1.33904149  -3.00698988 
H    2.21600020   0.54412931  -3.38778415 
H    1.67913794  -1.78942635  -3.92306412 
H   -0.15627119  -2.61266542  -0.16568861 
H    0.37847476  -3.15307060  -2.35984393 
*
