! EnGrad PBEh-3c
%output 
xyzfile=True 
end 
%scf 
maxiter 250 
end
%output
Print[P_Hirshfeld] = 1
end
% maxcore
4000
*xyz -1 1
Pd  -2.28277255  -1.80343490   0.83841129 
Cl  -3.83962213  -3.17974400  -0.01667038 
Cl  -1.11868930  -3.87689786   1.62587365 
Cl  -3.64526869   0.02000395   0.25169093 
N   -0.92090252  -0.24525710   1.45751979 
C   -1.22388372   0.31406316   2.61625486 
C   -0.72206517   1.54158462   3.04162394 
C    0.08090876   2.24905398   2.18314557 
C   -0.06642451   0.36786255   0.62081979 
C    0.41731265   1.67929132   0.94386443 
H    0.45748697   3.23138263   2.45994683 
H   -1.90131969  -0.24699570   3.24521875 
H   -1.00250725   1.92960818   4.01141048 
C    0.39487471  -0.32153362  -0.56277979 
C    1.24774574   2.40231331   0.02435012 
C    1.55667686   1.82469461  -1.15133528 
C    1.13933298   0.47128447  -1.47174448 
H    1.59720984   3.40090915   0.29064093 
H    2.18314069   2.38914522  -1.85898029 
C    0.18696116  -1.66981987  -0.86826989 
C    1.60574721  -0.05247577  -2.67871526 
C    0.55732504  -2.14014082  -2.11216165 
C    1.26296665  -1.35403192  -3.00131184 
H    2.23871405   0.53960170  -3.36867409 
H    1.65012471  -1.78494066  -3.91246618 
H   -0.16929058  -2.51571880  -0.20935050 
H    0.32015030  -3.16840810  -2.39350489 
*
