! EnGrad PBEh-3c
%output 
xyzfile=True 
end 
%scf 
maxiter 250 
end
%output
Print[P_Hirshfeld] = 1
end
% maxcore
4000
*xyz 0 1
Pd   0.57367329   0.52637776  -0.52582498 
O    2.19114315   1.54785209   0.38495266 
C    1.69978892   2.68174509   0.27822369 
O    0.48280464   2.78082572  -0.08137645 
C    2.48318608   3.91550998   0.56142742 
H    1.87307053   4.67692603   1.04304024 
H    2.84482038   4.32080457  -0.38538164 
H    3.34878557   3.69902817   1.18188695 
N   -1.21601151  -0.37490042  -1.15287211 
C   -1.27648215  -1.04571463  -2.46994445 
H   -0.95141386  -0.39051197  -3.27558002 
H   -2.29211031  -1.38104505  -2.71644614 
H   -0.64811538  -1.92790088  -2.49592031 
C   -2.14647626   0.74977590  -1.32272601 
H   -2.16203081   1.37308806  -0.44501492 
H   -3.17919272   0.43723607  -1.50811445 
H   -1.82443676   1.40829054  -2.12975450 
C   -1.42780259  -0.95916318   1.30017953 
C   -0.46047055  -1.68472299   2.00547849 
C   -0.33377233  -1.62166210   3.38618162 
C   -1.20541214  -0.81888733   4.10038719 
C   -2.30511684  -0.29775622   3.42941011 
C   -2.22338878  -0.07900052   2.05330978 
H   -1.12038430  -0.75872571   5.17768429 
H   -3.17572096  -0.06936081   4.03188779 
H    0.17196722  -2.41231041   1.51021764 
H    0.42368683  -2.19447642   3.90572785 
H   -3.12424380   1.99444098   2.09900490 
C   -1.71221820  -1.32316941  -0.13438151 
H   -2.80037831  -1.45988710  -0.19152127 
H   -1.30043618  -2.31267883  -0.34866811 
O    1.77334142  -0.92635390  -1.09928992 
C    2.28204696  -0.79416471  -2.28425492 
O    1.85250277  -0.00989996  -3.10943417 
C    3.47368025  -1.65195432  -2.63698386 
H    3.27996538  -2.71058252  -2.46884600 
H    4.31842547  -1.37938865  -2.00124048 
H    3.81272268  -1.52768291  -3.66540713 
*
