! EnGrad PBEh-3c
%output 
xyzfile=True 
end 
%scf 
maxiter 250 
end
%output
Print[P_Hirshfeld] = 1
end
% maxcore
4000
*xyz 0 1
Pd   0.67232622   0.51957054  -0.46955037 
O    2.13703719   1.46105108   0.35305899 
C    1.61189239   2.63897438   0.29055576 
O    0.44301978   2.74992365  -0.08990966 
C    2.52645129   3.83474668   0.56744161 
H    1.95710903   4.64074047   1.02839551 
H    2.91494584   4.23211307  -0.37860291 
H    3.38858995   3.59468204   1.19672195 
N   -1.28971335  -0.42573591  -1.19069905 
C   -1.25672481  -1.22483867  -2.43597458 
H   -0.89787056  -0.57635143  -3.23037552 
H   -2.29128631  -1.53316848  -2.64826872 
H   -0.60163314  -2.09234936  -2.33869895 
C   -2.18208520   0.73484589  -1.37112688 
H   -2.22799474   1.36019948  -0.47126094 
H   -3.17968941   0.34554783  -1.62352075 
H   -1.79731132   1.27177685  -2.23650951 
C   -1.46704802  -0.86860265   1.34320500 
C   -0.61394149  -1.78233160   2.03822888 
C   -0.39315659  -1.66107743   3.40257698 
C   -1.26647343  -0.89287378   4.13371006 
C   -2.14122084   0.00224593   3.50555339 
C   -2.18353319   0.10726249   2.15140000 
H   -1.15386381  -0.76089585   5.19977891 
H   -2.96904972   0.46137779   4.03463608 
H   -0.04975106  -2.54633618   1.49169168 
H    0.27074070  -2.33188866   3.93225006 
H   -2.69970692   1.79713314   1.90455257 
C   -1.79998169  -1.28026123  -0.08587303 
H   -2.89366227  -1.34933155  -0.18247140 
H   -1.44752341  -2.30978405  -0.25124302 
O    1.83310644  -0.96277946  -1.13185343 
C    2.25075416  -0.70091822  -2.34847523 
O    1.72886453   0.05134588  -3.15453580 
C    3.53158089  -1.48182123  -2.66654266 
H    3.38471637  -2.55992360  -2.56797867 
H    4.35309955  -1.20113517  -2.00384241 
H    3.81291625  -1.26109884  -3.69529297 
*
