! EnGrad PBEh-3c
%output 
xyzfile=True 
end 
%scf 
maxiter 250 
end
%output
Print[P_Hirshfeld] = 1
end
% maxcore
4000
*xyz 0 1
Pd   0.65730653   0.44851499  -0.45946214 
O    2.10181189   1.44439510   0.35480153 
C    1.61104716   2.58687315   0.29867119 
O    0.40134044   2.71640814  -0.08697900 
C    2.55276623   3.73795446   0.57274967 
H    2.04985105   4.60005915   1.01581291 
H    2.98491107   4.12204552  -0.36573113 
H    3.41680647   3.47496539   1.20714439 
N   -1.30988277  -0.48557299  -1.16105201 
C   -1.24893225  -1.38637910  -2.36311114 
H   -0.83617438  -0.79402335  -3.19062393 
H   -2.28314712  -1.71910006  -2.58877474 
H   -0.57206189  -2.25565040  -2.16553698 
C   -2.20223947   0.66853132  -1.44953358 
H   -2.29133047   1.32855789  -0.54731663 
H   -3.18809646   0.26162176  -1.74458260 
H   -1.77229332   1.14379987  -2.34151299 
C   -1.52330215  -0.81369522   1.40401205 
C   -0.77705628  -1.83264168   2.05050798 
C   -0.51432028  -1.75673375   3.43636969 
C   -1.30003523  -0.86771788   4.17468778 
C   -1.99664607   0.24626054   3.57172154 
C   -2.08570748   0.37411760   2.16531640 
H   -1.17866934  -0.77403100   5.23920677 
H   -2.70284977   1.02535501   4.06067455 
H   -0.31391579  -2.68588908   1.49126154 
H    0.09953796  -2.48560623   3.96232856 
H   -2.25580865   1.55012066   1.70894154 
C   -1.89741804  -1.23255641  -0.03896727 
H   -2.99586844  -1.22651068  -0.15440753 
H   -1.61726960  -2.29563026  -0.14808672 
O    1.88700129  -0.95209770  -1.18698826 
C    2.23384421  -0.62139202  -2.40360793 
O    1.61085128   0.08178809  -3.16551824 
C    3.57542599  -1.27817111  -2.72219424 
H    3.49924867  -2.37938709  -2.68334313 
H    4.38004944  -1.00155818  -2.01391239 
H    3.83006559  -0.97297304  -3.73049146 
*
