! EnGrad PBEh-3c
%output 
xyzfile=True 
end 
%scf 
maxiter 250 
end
%output
Print[P_Hirshfeld] = 1
end
% maxcore
4000
*xyz 0 1
Pd   0.66594354   0.48937520  -0.46526334 
O    2.12206806   1.45397305   0.35379949 
C    1.61153320   2.61683375   0.29400444 
O    0.42530798   2.73568110  -0.08866426 
C    2.53763393   3.79361443   0.56969729 
H    1.99652013   4.62345278   1.02304848 
H    2.94467785   4.18533942  -0.37313299 
H    3.40058067   3.54380796   1.20115101 
N   -1.29828443  -0.45116392  -1.17810042 
C   -1.25341333  -1.29348593  -2.40501097 
H   -0.87165252  -0.66885199  -3.21348292 
H   -2.28782753  -1.61218085  -2.62298651 
H   -0.58906672  -2.16174480  -2.26511307 
C   -2.19064984   0.70666525  -1.40444612 
H   -2.25490951   1.34675326  -0.50358111 
H   -3.18326202   0.30988311  -1.67496647 
H   -1.78667982   1.21739252  -2.28113116 
C   -1.49095344  -0.84526952   1.36904520 
C   -0.68325778  -1.80371107   2.04344693 
C   -0.44464559  -1.70172697   3.41693733 
C   -1.28073565  -0.88218368   4.15112371 
C   -2.07978321   0.10594092   3.53367182 
C   -2.14196176   0.22066365   2.15731383 
H   -1.16440502  -0.76647769   5.21653394 
H   -2.85592698   0.70104219   4.04570123 
H   -0.16200893  -2.60563975   1.49150889 
H    0.19798740  -2.39721156   3.94503204 
H   -2.51107055   1.69216419   1.82142687 
C   -1.84138766  -1.25998887  -0.06594024 
H   -2.93709520  -1.29713833  -0.17054555 
H   -1.51965774  -2.30376934  -0.20740633 
O    1.85600928  -0.95824020  -1.15528319 
C    2.24356821  -0.66712324  -2.37190410 
O    1.67871432   0.06428242  -3.15920283 
C    3.55021305  -1.39527929  -2.69019203 
H    3.43338733  -2.48320388  -2.61700326 
H    4.36455202  -1.11632412  -2.00812169 
H    3.82020393  -1.13865862  -3.71025071 
*
