! EnGrad PBEh-3c
%output 
xyzfile=True 
end 
%scf 
maxiter 250 
end
%output
Print[P_Hirshfeld] = 1
end
% maxcore
4000
*xyz 0 1
Pd   0.62720582   0.43803617  -0.47002453 
O    2.11170539   1.44636201   0.35918988 
C    1.62123068   2.59767491   0.29320830 
O    0.41447087   2.71948218  -0.07795521 
C    2.54911008   3.74914051   0.57342758 
H    2.04440193   4.59980746   1.01781236 
H    2.97821692   4.12124099  -0.36499253 
H    3.40706023   3.47686370   1.20414734 
N   -1.29515915  -0.48270477  -1.15172296 
C   -1.25017316  -1.36973784  -2.35405310 
H   -0.83831794  -0.79311825  -3.18917916 
H   -2.27348590  -1.71613081  -2.59178541 
H   -0.58444415  -2.23829588  -2.17159916 
C   -2.19313557   0.65545743  -1.45609218 
H   -2.28334421   1.32258546  -0.56684412 
H   -3.18515020   0.27037245  -1.73626253 
H   -1.77477117   1.15691254  -2.32956669 
C   -1.52574391  -0.81782795   1.40756662 
C   -0.77100103  -1.81508599   2.05167583 
C   -0.53626433  -1.75785741   3.43752427 
C   -1.29092594  -0.82681963   4.17008682 
C   -2.01892289   0.21890443   3.54960970 
C   -2.05762337   0.37801925   2.13546902 
H   -1.17318086  -0.77560679   5.24145585 
H   -2.67482828   0.97564049   4.06090127 
H   -0.31714959  -2.67088067   1.50101901 
H    0.09830208  -2.47845193   3.95986401 
H   -2.29025417   1.52009951   1.73503196 
C   -1.89496346  -1.23729812  -0.03580048 
H   -2.98947599  -1.22778663  -0.14996147 
H   -1.61359570  -2.29128888  -0.15502640 
O    1.87524482  -0.93809088  -1.18650553 
C    2.24961306  -0.64716357  -2.37629063 
O    1.61298415   0.08231958  -3.17248748 
C    3.56958626  -1.28252698  -2.72913700 
H    3.49345328  -2.37834640  -2.68252114 
H    4.37111747  -1.00744618  -2.01780046 
H    3.83665326  -0.98494872  -3.73060633 
*
