! EnGrad PBEh-3c
%output 
xyzfile=True 
end 
%scf 
maxiter 250 
end
%output
Print[P_Hirshfeld] = 1
end
% maxcore
4000
*xyz 0 1
Pd   0.57342020   0.40918065  -0.48222815 
O    2.11866698   1.43439502   0.36300408 
C    1.62801478   2.59961893   0.28520699 
O    0.42952974   2.71665241  -0.05975135 
C    2.55481752   3.74138420   0.57460409 
H    2.05726100   4.59101701   1.02004615 
H    2.98610123   4.08938340  -0.36165096 
H    3.39618230   3.44601218   1.20214713 
N   -1.28009006  -0.49462984  -1.13194174 
C   -1.24340570  -1.38949055  -2.31832958 
H   -0.82528290  -0.85329685  -3.17261652 
H   -2.25299345  -1.76159282  -2.57790757 
H   -0.59925084  -2.25197080  -2.13226664 
C   -2.17916603   0.62049968  -1.48261786 
H   -2.28593460   1.30098253  -0.62925907 
H   -3.18214228   0.25965316  -1.75615557 
H   -1.77020981   1.14553538  -2.33999951 
C   -1.54738917  -0.79774888   1.41310525 
C   -0.80508396  -1.80712954   2.07140494 
C   -0.61311638  -1.77293852   3.45212412 
C   -1.27485768  -0.76437941   4.16967709 
C   -2.00678797   0.25480641   3.51312015 
C   -1.97745323   0.41572303   2.10632821 
H   -1.17241428  -0.77750037   5.25455343 
H   -2.54788575   1.03938015   4.06951646 
H   -0.40248096  -2.67727310   1.52046503 
H    0.03986014  -2.50456633   3.96161431 
H   -2.23450564   1.41056035   1.72287648 
C   -1.91450722  -1.22796406  -0.01118295 
H   -3.00679702  -1.19387340  -0.13375463 
H   -1.65546706  -2.28075124  -0.13730997 
O    1.86664485  -0.91940071  -1.18330548 
C    2.24284499  -0.62817735  -2.39173038 
O    1.60936651   0.05932243  -3.15576844 
C    3.57761404  -1.23815129  -2.74855586 
H    3.51624049  -2.32504156  -2.71571619 
H    4.35936381  -0.96122396  -2.03123673 
H    3.85412558  -0.92212218  -3.74532529 
*
