! EnGrad PBEh-3c
%output 
xyzfile=True 
end 
%scf 
maxiter 250 
end
%output
Print[P_Hirshfeld] = 1
end
% maxcore
4000
*xyz 0 1
Pd   0.53525642   0.38252319  -0.47086117 
O    2.10619253   1.36788415   0.33573909 
C    1.60947773   2.56498545   0.28413589 
O    0.43090179   2.70678163  -0.02517729 
C    2.57544619   3.69788796   0.57453676 
H    2.09800868   4.56808242   1.02291314 
H    3.02515021   4.00769739  -0.36427054 
H    3.38681267   3.35268624   1.20684982 
N   -1.30036123  -0.53116518  -1.12653043 
C   -1.21926160  -1.48750170  -2.25024795 
H   -0.78708685  -1.01619197  -3.12399301 
H   -2.20907173  -1.88013404  -2.52212213 
H   -0.60333183  -2.33114522  -2.00344610 
C   -2.16741934   0.56733562  -1.54824886 
H   -2.31112128   1.26686769  -0.74796497 
H   -3.16812181   0.20661611  -1.82637090 
H   -1.74931769   1.09015754  -2.39576241 
C   -1.55709616  -0.76219555   1.42637493 
C   -0.93984916  -1.81444297   2.12063554 
C   -0.75872722  -1.78186370   3.48802908 
C   -1.27887902  -0.68841178   4.17601996 
C   -1.87435272   0.42440796   3.50370030 
C   -1.80859979   0.35664543   2.15787672 
H   -1.19660540  -0.76530621   5.26725032 
H   -2.23960636   1.30421508   4.07500823 
H   -0.63709006  -2.70286161   1.55667870 
H   -0.14241960  -2.57183084   3.96149538 
H   -2.04073331   1.24217811   1.56853305 
C   -1.97204582  -1.18350174   0.04331475 
H   -3.06163241  -1.09496736  -0.10068413 
H   -1.77249774  -2.25535990  -0.06100350 
O    1.86380075  -0.91369637  -1.18549131 
C    2.22220450  -0.57534600  -2.41052306 
O    1.55325783   0.05824291  -3.16413397 
C    3.60766968  -1.10510791  -2.79228313 
H    3.59170261  -2.18964519  -2.80966892 
H    4.34722060  -0.81655771  -2.05728427 
H    3.88988648  -0.72717888  -3.78143561 
*
