! EnGrad PBEh-3c
%output 
xyzfile=True 
end 
%scf 
maxiter 250 
end
%output
Print[P_Hirshfeld] = 1
end
% maxcore
4000
*xyz 0 1
Pd   0.52120526   0.37166970  -0.45811243 
O    2.08874322   1.32267625   0.30351227 
C    1.61112613   2.52675205   0.29021535 
O    0.41610955   2.69901986   0.00250942 
C    2.58364057   3.66010060   0.57329439 
H    2.12562736   4.54863355   1.02387420 
H    3.05437983   3.94922169  -0.37047894 
H    3.37941594   3.28268873   1.21221533 
N   -1.32090779  -0.55564546  -1.12432535 
C   -1.20485061  -1.55843127  -2.20269314 
H   -0.75834244  -1.13065321  -3.08928501 
H   -2.17744567  -1.96225283  -2.47809444 
H   -0.59791017  -2.39394758  -1.90316596 
C   -2.16448453   0.53155979  -1.60416751 
H   -2.33054941   1.25199967  -0.82537782 
H   -3.15498328   0.16602098  -1.87802031 
H   -1.73144134   1.05403909  -2.44007956 
C   -1.53564101  -0.79800654   1.43784740 
C   -1.04001068  -1.82867065   2.15158750 
C   -0.85917629  -1.77554559   3.50825143 
C   -1.28940279  -0.63141324   4.19678772 
C   -1.74751820   0.52756795   3.55260678 
C   -1.70776527   0.32491921   2.17827842 
H   -1.22262976  -0.74651370   5.26732560 
H   -2.00617080   1.48687886   4.06511870 
H   -0.81019123  -2.71004988   1.58762654 
H   -0.29010921  -2.60829707   3.95886674 
H   -1.91029438   1.14297427   1.43534798 
C   -2.01235280  -1.14738300   0.06766700 
H   -3.09772572  -1.02126829  -0.07391740 
H   -1.85524280  -2.22991192   0.00259250 
O    1.85952553  -0.91552755  -1.19481163 
C    2.21080190  -0.54421467  -2.41287788 
O    1.50812094   0.06668810  -3.17559247 
C    3.62108052  -1.00590336  -2.82763177 
H    3.64830387  -2.09483421  -2.87882534 
H    4.34166795  -0.70784840  -2.07329723 
H    3.91536685  -0.58829358  -3.80227617 
*
