! EnGrad PBEh-3c
%output 
xyzfile=True 
end 
%scf 
maxiter 250 
end
%output
Print[P_Hirshfeld] = 1
end
% maxcore
4000
*xyz 0 1
Pd   0.54158174   0.38850405  -0.45281643 
O    2.08150380   1.32239167   0.28443605 
C    1.60907211   2.51572164   0.29407064 
O    0.41220228   2.69518551   0.01217630 
C    2.57863476   3.65478490   0.57060937 
H    2.11769594   4.54466792   1.02239236 
H    3.05133499   3.95353489  -0.37548369 
H    3.37614365   3.28469076   1.21394560 
N   -1.32806434  -0.54880625  -1.13114353 
C   -1.20384117  -1.55401718  -2.20742726 
H   -0.75984776  -1.11688708  -3.08965122 
H   -2.17991427  -1.94961335  -2.47468049 
H   -0.58923882  -2.39153414  -1.90027456 
C   -2.17023768   0.54457910  -1.60501911 
H   -2.32921324   1.26458759  -0.81485616 
H   -3.15290695   0.16448416  -1.87636901 
H   -1.72760523   1.06563337  -2.44303487 
C   -1.51398518  -0.83460525   1.43442878 
C   -1.02941938  -1.85985942   2.16049710 
C   -0.84773935  -1.74767747   3.50745334 
C   -1.29007476  -0.64589021   4.21478470 
C   -1.71051823   0.50340942   3.56989240 
C   -1.73529706   0.31461641   2.16964180 
H   -1.23459815  -0.73032765   5.26159772 
H   -1.99935269   1.44436279   4.04644567 
H   -0.80159865  -2.69745889   1.59326464 
H   -0.31106154  -2.58101026   3.95438713 
H   -1.94418297   1.18093725   1.42769957 
C   -2.00203016  -1.15052145   0.04752967 
H   -3.08835797  -1.02178534  -0.06891180 
H   -1.84622279  -2.22228142   0.00672237 
O    1.85317706  -0.92711537  -1.20107185 
C    2.21036846  -0.55182591  -2.40422240 
O    1.51212646   0.07606861  -3.17694424 
C    3.61115834  -1.01285376  -2.82376946 
H    3.64627029  -2.10436557  -2.87581956 
H    4.34219577  -0.71089900  -2.07197991 
H    3.91377516  -0.60275534  -3.79481364 
*
