! EnGrad PBEh-3c
%output 
xyzfile=True 
end 
%scf 
maxiter 250 
end
%output
Print[P_Hirshfeld] = 1
end
% maxcore
4000
*xyz 0 1
Pd   0.54257670   0.38695467  -0.46624710 
O    2.08960198   1.33973990   0.26536486 
C    1.61234737   2.52175922   0.29321513 
O    0.40534751   2.67668998   0.03533714 
C    2.57088019   3.64085622   0.56683619 
H    2.10892825   4.52357507   1.01310158 
H    3.04062911   3.95223427  -0.37314133 
H    3.37127202   3.28851113   1.21553530 
N   -1.31026803  -0.53318187  -1.12757036 
C   -1.20081365  -1.54447914  -2.20524896 
H   -0.75743606  -1.09743750  -3.09251104 
H   -2.19218467  -1.93883907  -2.47212486 
H   -0.57692433  -2.38323638  -1.89215827 
C   -2.17575850   0.56346691  -1.60518051 
H   -2.32814679   1.28322109  -0.80209899 
H   -3.15917422   0.16390585  -1.88328852 
H   -1.72214922   1.07972835  -2.45061460 
C   -1.53141371  -0.81614558   1.45016393 
C   -1.01148201  -1.87730151   2.17109987 
C   -0.82888696  -1.75303567   3.52099329 
C   -1.27371230  -0.65652459   4.22766410 
C   -1.68144718   0.46222059   3.50653470 
C   -1.77788929   0.39363257   2.10174872 
H   -1.24760073  -0.70704254   5.30406697 
H   -1.97961742   1.38658140   4.02246972 
H   -0.76693977  -2.75202147   1.58981194 
H   -0.33986648  -2.55674462   3.97443753 
H   -1.98363125   1.19280164   1.47197337 
C   -1.98355611  -1.16251095   0.03227531 
H   -3.07268463  -1.01824139  -0.05410642 
H   -1.83597916  -2.22687141  -0.00489549 
O    1.84347751  -0.93802279  -1.21961630 
C    2.21062279  -0.56923320  -2.40711398 
O    1.52107255   0.09217640  -3.16520490 
C    3.59923636  -1.02186952  -2.81229220 
H    3.64474517  -2.11021691  -2.87098805 
H    4.33995275  -0.71467831  -2.07198428 
H    3.90394563  -0.62065434  -3.77915636 
*
