! EnGrad PBEh-3c
%output 
xyzfile=True 
end 
%scf 
maxiter 250 
end
%output
Print[P_Hirshfeld] = 1
end
% maxcore
4000
*xyz 0 1
Pd   0.54919436   0.39207573  -0.48829359 
O    2.11500260   1.35951684   0.24024197 
C    1.60735012   2.52642969   0.28830161 
O    0.39052316   2.65757295   0.06404888 
C    2.56397435   3.64380810   0.56428977 
H    2.08146176   4.50278364   1.00289718 
H    3.01742188   3.96385386  -0.37099664 
H    3.36541516   3.30957264   1.21721759 
N   -1.28918711  -0.50513217  -1.12736957 
C   -1.19765264  -1.51149463  -2.21696539 
H   -0.76038506  -1.04613588  -3.09779334 
H   -2.20170286  -1.89708673  -2.47128074 
H   -0.56516896  -2.34642327  -1.90466657 
C   -2.17380603   0.59344001  -1.59086850 
H   -2.31952336   1.31150318  -0.77797964 
H   -3.15751183   0.18058234  -1.87901155 
H   -1.72108847   1.10461437  -2.44426055 
C   -1.54965840  -0.81832913   1.42580373 
C   -0.97329025  -1.87267146   2.14853792 
C   -0.79389932  -1.76205877   3.51440787 
C   -1.24677650  -0.65974187   4.22408093 
C   -1.68564714   0.40052454   3.44318121 
C   -1.82533126   0.40996604   2.05993878 
H   -1.25402320  -0.66346612   5.33097838 
H   -1.99844698   1.25813816   3.98758892 
H   -0.68698371  -2.79571664   1.60882165 
H   -0.32482292  -2.56268234   4.03985002 
H   -2.10574398   1.29097947   1.53680410 
C   -1.95329695  -1.17286267   0.03449020 
H   -3.03596678  -1.02934394  -0.04498000 
H   -1.79955409  -2.24880623  -0.04870712 
O    1.82153054  -0.96172665  -1.22693284 
C    2.20736288  -0.58936464  -2.41030291 
O    1.54326621   0.11232089  -3.15749793 
C    3.58926302  -1.06509326  -2.79194000 
H    3.62879426  -2.14685464  -2.84700547 
H    4.33242529  -0.74624564  -2.06467162 
H    3.88014330  -0.67457056  -3.75725595 
*
