! EnGrad PBEh-3c
%output 
xyzfile=True 
end 
%scf 
maxiter 250 
end
%output
Print[P_Hirshfeld] = 1
end
% maxcore
4000
*xyz 0 1
Pd   0.54757340   0.39092867  -0.48964749 
O    2.11949993   1.35534535   0.24302864 
C    1.60457389   2.52360795   0.28673670 
O    0.38979270   2.65911027   0.06101730 
C    2.56510006   3.65038728   0.56611175 
H    2.07742956   4.51028344   1.00610298 
H    3.01783222   3.96590795  -0.37198885 
H    3.36757759   3.31165809   1.21707011 
N   -1.29250040  -0.50716730  -1.12471245 
C   -1.19803375  -1.50695991  -2.21775811 
H   -0.76043639  -1.04621544  -3.09742368 
H   -2.19509968  -1.89367385  -2.47083236 
H   -0.56942280  -2.33989785  -1.91096528 
C   -2.16795474   0.58818951  -1.58667357 
H   -2.31831138   1.30768983  -0.78290238 
H   -3.15099549   0.18780385  -1.87607821 
H   -1.72436472   1.10023023  -2.43827360 
C   -1.54836839  -0.81484490   1.41135340 
C   -0.97191823  -1.86247340   2.13701415 
C   -0.79427279  -1.77633210   3.51231107 
C   -1.24355467  -0.65849490   4.20958377 
C   -1.71021783   0.41195140   3.45787289 
C   -1.80942780   0.38389109   2.07425996 
H   -1.24498426  -0.66159837   5.30786340 
H   -2.01521734   1.27876441   3.99755945 
H   -0.68741900  -2.77936065   1.62059727 
H   -0.30526362  -2.58652932   4.05192705 
H   -2.11175653   1.29189078   1.54421326 
C   -1.95829631  -1.17496045   0.03883987 
H   -3.03721783  -1.03217412  -0.05194342 
H   -1.79789503  -2.25077390  -0.05846210 
O    1.81956839  -0.96180879  -1.22103612 
C    2.20186180  -0.58044051  -2.41204193 
O    1.54594968   0.10657316  -3.15934831 
C    3.59418959  -1.06936924  -2.79366899 
H    3.62680423  -2.15413474  -2.84326942 
H    4.33117490  -0.75075787  -2.06058691 
H    3.87768992  -0.67387830  -3.76288497 
*
