! EnGrad PBEh-3c
%output 
xyzfile=True 
end 
%scf 
maxiter 250 
end
%output
Print[P_Hirshfeld] = 1
end
% maxcore
4000
*xyz 0 1
Pd   0.56657689   0.41010645  -0.50509737 
O    2.14102795   1.35766364   0.19060051 
C    1.60590491   2.51085763   0.28812202 
O    0.37454986   2.62022648   0.09837129 
C    2.53991171   3.65689612   0.56543924 
H    2.02749939   4.51019728   1.00599549 
H    2.99416222   3.98248356  -0.37829776 
H    3.35917973   3.33622191   1.21770097 
N   -1.28564167  -0.48485164  -1.12526482 
C   -1.18637508  -1.45238500  -2.22567645 
H   -0.75813863  -0.98778705  -3.10273903 
H   -2.18451407  -1.83596071  -2.46149492 
H   -0.55684227  -2.28469058  -1.93005346 
C   -2.15225808   0.61507991  -1.56481459 
H   -2.30470957   1.33942212  -0.77090846 
H   -3.12632723   0.22424374  -1.86649421 
H   -1.72071375   1.12004522  -2.42203981 
C   -1.50997108  -0.83335616   1.39759048 
C   -0.92270243  -1.85951443   2.14579509 
C   -0.74458440  -1.81125497   3.52231709 
C   -1.20918961  -0.69098654   4.16891006 
C   -1.72944535   0.36851216   3.44127715 
C   -1.85784867   0.35857058   2.06472944 
H   -1.22251725  -0.59212836   5.24291099 
H   -2.07097493   1.23043245   3.98610795 
H   -0.61579725  -2.77116057   1.66516918 
H   -0.29030258  -2.61483469   4.11262699 
H   -2.25492783   1.33324776   1.63439538 
C   -1.93505357  -1.19611768  -0.00300365 
H   -3.01595789  -1.04804711  -0.06734838 
H   -1.75619172  -2.26357740  -0.12848016 
O    1.77550183  -0.99104256  -1.23370519 
C    2.19664639  -0.60073414  -2.40365704 
O    1.57276508   0.12710259  -3.15952877 
C    3.57379007  -1.11985155  -2.77578482 
H    3.60666896  -2.21342926  -2.80674728 
H    4.31574373  -0.79237101  -2.03885644 
H    3.84751518  -0.72784696  -3.75496210 
*
