! EnGrad PBEh-3c
%output 
xyzfile=True 
end 
%scf 
maxiter 250 
end
%output
Print[P_Hirshfeld] = 1
end
% maxcore
4000
*xyz 0 1
Pd   0.56527969   0.41282999  -0.50696251 
O    2.14621527   1.35492104   0.16778135 
C    1.60843097   2.50256808   0.28979218 
O    0.37426175   2.59865615   0.11525692 
C    2.53107225   3.65564258   0.56565506 
H    2.01567580   4.50734105   1.00571259 
H    2.98774843   3.97892726  -0.37719764 
H    3.35036865   3.33697389   1.21531706 
N   -1.28034260  -0.47817273  -1.12615375 
C   -1.17897710  -1.44504614  -2.22473168 
H   -0.75153171  -0.98143913  -3.10345301 
H   -2.17773740  -1.82955395  -2.45555919 
H   -0.54964388  -2.27625910  -1.92437093 
C   -2.14731428   0.62076214  -1.56692573 
H   -2.30181580   1.34864639  -0.77457178 
H   -3.12095406   0.23025819  -1.86997729 
H   -1.71252642   1.12224570  -2.42383668 
C   -1.49721834  -0.83407444   1.40664323 
C   -0.91510295  -1.87037210   2.16133416 
C   -0.74181991  -1.81488319   3.53366510 
C   -1.20676511  -0.68601894   4.16358694 
C   -1.72085077   0.37863164   3.44306942 
C   -1.86929528   0.36316151   2.06782400 
H   -1.20898624  -0.57357757   5.22342742 
H   -2.06388257   1.24871659   3.98408661 
H   -0.61607444  -2.77251838   1.67046216 
H   -0.30811811  -2.62384227   4.11350986 
H   -2.26638898   1.28596811   1.64508617 
C   -1.93014112  -1.19481318  -0.00303187 
H   -3.01966080  -1.04686834  -0.07465115 
H   -1.75458075  -2.26297197  -0.14320327 
O    1.75868832  -0.99772666  -1.24241116 
C    2.19257276  -0.60504283  -2.40577987 
O    1.57892817   0.13183813  -3.15562853 
C    3.56852645  -1.12280718  -2.77530532 
H    3.60584721  -2.21556900  -2.80195132 
H    4.30634094  -0.79432424  -2.03597046 
H    3.84238561  -0.72909324  -3.75336849 
*
