! EnGrad PBEh-3c
%output 
xyzfile=True 
end 
%scf 
maxiter 250 
end
%output
Print[P_Hirshfeld] = 1
end
% maxcore
4000
*xyz 0 1
Pd   0.55763237   0.41128356  -0.50749003 
O    2.15481157   1.35101807   0.14603235 
C    1.61076138   2.49309183   0.29040580 
O    0.37678699   2.57351914   0.13299217 
C    2.52220093   3.65319708   0.56605383 
H    2.00731862   4.50434435   1.00573180 
H    2.98146865   3.97128624  -0.37360284 
H    3.33845943   3.33480742   1.21191321 
N   -1.27355835  -0.47157075  -1.12367676 
C   -1.16974723  -1.44486850  -2.22337730 
H   -0.74196309  -0.98173406  -3.10530141 
H   -2.16964370  -1.83117282  -2.45127118 
H   -0.54088366  -2.27407217  -1.91526905 
C   -2.14321444   0.62514069  -1.57339647 
H   -2.29898363   1.35504573  -0.78188611 
H   -3.11921006   0.23271312  -1.87577138 
H   -1.69979396   1.12298753  -2.42955408 
C   -1.49170766  -0.83218064   1.42491392 
C   -0.91683196  -1.87515799   2.17679638 
C   -0.75049676  -1.80961446   3.54469671 
C   -1.20944003  -0.66852673   4.16217990 
C   -1.71159984   0.40583398   3.44908653 
C   -1.86357291   0.35250139   2.07998463 
H   -1.18878576  -0.56321629   5.21899425 
H   -2.04725696   1.28845048   3.98677487 
H   -0.62750260  -2.78024639   1.66278983 
H   -0.33349899  -2.63187183   4.10031655 
H   -2.25958004   1.20914582   1.63545330 
C   -1.92969462  -1.18702810   0.01042689 
H   -3.02416276  -1.04480305  -0.08355146 
H   -1.75938835  -2.25654357  -0.14963046 
O    1.74232155  -1.00250602  -1.25118080 
C    2.18820318  -0.60943213  -2.40796855 
O    1.58126661   0.13758561  -3.15389508 
C    3.56496151  -1.11895466  -2.77754230 
H    3.60690175  -2.20794001  -2.80078744 
H    4.29456614  -0.79100456  -2.03611367 
H    3.84191240  -0.72288944  -3.75281673 
*
