! EnGrad PBEh-3c
%output 
xyzfile=True 
end 
%scf 
maxiter 250 
end
%output
Print[P_Hirshfeld] = 1
end
% maxcore
4000
*xyz 0 1
Pd   0.54846055   0.40438106  -0.50468826 
O    2.16077931   1.34665098   0.13814199 
C    1.61451222   2.48318116   0.28946082 
O    0.37726479   2.55883106   0.14241006 
C    2.51797175   3.64883629   0.56669054 
H    2.01027484   4.50224112   1.00616159 
H    2.98092482   3.96017672  -0.36977994 
H    3.33010583   3.32637158   1.21061209 
N   -1.27290136  -0.47229733  -1.11761748 
C   -1.16342628  -1.45743469  -2.21804360 
H   -0.73260610  -0.99784425  -3.10470719 
H   -2.16233554  -1.84783330  -2.45024614 
H   -0.53463560  -2.28591480  -1.90237240 
C   -2.14236810   0.62174695  -1.58548651 
H   -2.29888405   1.35277448  -0.79401250 
H   -3.12188390   0.22687329  -1.88409154 
H   -1.68728702   1.11811005  -2.43936933 
C   -1.49777393  -0.84265328   1.43767008 
C   -0.93137762  -1.88321102   2.17986721 
C   -0.77750874  -1.79133505   3.54287359 
C   -1.21718698  -0.63790698   4.17781560 
C   -1.69805762   0.44045854   3.46772075 
C   -1.83203875   0.32908565   2.10739082 
H   -1.16980229  -0.56983118   5.23689534 
H   -2.01635369   1.34366317   3.99135657 
H   -0.66041889  -2.78349700   1.64792272 
H   -0.36058322  -2.63606631   4.07678844 
H   -2.22983441   1.14617396   1.58450848 
C   -1.93714363  -1.17282814   0.03220514 
H   -3.02930699  -1.03842256  -0.08716356 
H   -1.77545658  -2.24283461  -0.13451935 
O    1.73695142  -1.00272572  -1.25502112 
C    2.18213996  -0.60382226  -2.41380267 
O    1.57681630   0.13870854  -3.15468732 
C    3.56535281  -1.10232378  -2.78448238 
H    3.61234155  -2.18721201  -2.80902843 
H    4.28750495  -0.77648174  -2.03959380 
H    3.85005849  -0.70263207  -3.75481368 
*
