! EnGrad PBEh-3c
%output 
xyzfile=True 
end 
%scf 
maxiter 250 
end
%output
Print[P_Hirshfeld] = 1
end
% maxcore
4000
*xyz 0 1
Pd   0.64721814   0.54766742  -0.49012366 
O    2.17362063   1.47852085   0.36208384 
C    1.63132183   2.68449472   0.28374950 
O    0.47061337   2.77105944  -0.08767565 
C    2.50647496   3.89624456   0.56339682 
H    1.89782148   4.66529820   1.03747878 
H    2.86795818   4.29704471  -0.38451121 
H    3.36485313   3.66844524   1.18798167 
N   -1.26344542  -0.38779830  -1.19784314 
C   -1.26303623  -1.11332390  -2.47271732 
H   -0.93630579  -0.44506636  -3.25494808 
H   -2.29140955  -1.42072221  -2.68814337 
H   -0.62837459  -1.98211566  -2.44723225 
C   -2.16310737   0.76482676  -1.32847434 
H   -2.18485274   1.37414527  -0.44006922 
H   -3.17453932   0.40290285  -1.54506619 
H   -1.81454280   1.35792858  -2.16470818 
C   -1.43645824  -0.91184798   1.30791177 
C   -0.50944722  -1.73636944   2.02703669 
C   -0.33438388  -1.61323791   3.38704824 
C   -1.23450473  -0.87891537   4.10588929 
C   -2.24930932  -0.17135500   3.45935822 
C   -2.22773425  -0.04055296   2.11650801 
H   -1.13454587  -0.75529599   5.18015584 
H   -3.11442532   0.09602092   4.02106562 
H    0.10855455  -2.45447562   1.49851775 
H    0.37497236  -2.23496725   3.91208334 
H   -2.98707468   1.93249319   2.03419523 
C   -1.74005823  -1.31356153  -0.11219786 
H   -2.82787749  -1.42487485  -0.19535171 
H   -1.34288852  -2.31497907  -0.31811266 
O    1.79325096  -0.95764475  -1.09567782 
C    2.26200328  -0.74901501  -2.31819291 
O    1.81188666   0.01649370  -3.13326083 
C    3.50299052  -1.60908993  -2.63641033 
H    3.31228155  -2.66720038  -2.49786417 
H    4.32998302  -1.32608513  -2.00130949 
H    3.80701754  -1.44332368  -3.67435218 
*
