! EnGrad PBEh-3c
%output 
xyzfile=True 
end 
%scf 
maxiter 250 
end
%output
Print[P_Hirshfeld] = 1
end
% maxcore
4000
*xyz 0 1
Pd   0.64289065   0.54700596  -0.49233773 
O    2.17583950   1.48178032   0.36360000 
C    1.63320908   2.68561109   0.28289822 
O    0.47290012   2.77182074  -0.08694946 
C    2.50538677   3.89849325   0.56321702 
H    1.89559209   4.66619270   1.03789211 
H    2.86597069   4.29918057  -0.38451897 
H    3.36355826   3.67116965   1.18747523 
N   -1.26099349  -0.38646125  -1.19638958 
C   -1.26322065  -1.10850024  -2.47306982 
H   -0.93770552  -0.44029061  -3.25625517 
H   -2.29150288  -1.41694403  -2.69013942 
H   -0.63009333  -1.97728178  -2.45140725 
C   -2.16177207   0.76498171  -1.32710223 
H   -2.18302117   1.37411355  -0.44021477 
H   -3.17472787   0.40544813  -1.54198517 
H   -1.81532295   1.36173450  -2.16171488 
C   -1.43594034  -0.91470127   1.30605864 
C   -0.50479636  -1.73351085   2.02649598 
C   -0.33375754  -1.61260518   3.38674099 
C   -1.23212469  -0.87595250   4.10462942 
C   -2.25419882  -0.18010393   3.45579405 
C   -2.22826711  -0.04479944   2.11439757 
H   -1.13348367  -0.75535604   5.18008206 
H   -3.11948496   0.08180550   4.02130285 
H    0.11408366  -2.45075998   1.49926683 
H    0.37898822  -2.23140920   3.91137274 
H   -2.99856834   1.93750414   2.03950775 
C   -1.73763562  -1.31488330  -0.11319767 
H   -2.82540362  -1.42775510  -0.19537653 
H   -1.33913477  -2.31486951  -0.32075053 
O    1.79148763  -0.95609879  -1.09483627 
C    2.26337217  -0.75222516  -2.31597361 
O    1.81504389   0.01499279  -3.13218983 
C    3.50148217  -1.61359753  -2.63551199 
H    3.30952243  -2.67083048  -2.49536285 
H    4.32871381  -1.33080974  -2.00150206 
H    3.80724089  -1.45039557  -3.67374689 
*
