! EnGrad PBEh-3c
%output 
xyzfile=True 
end 
%scf 
maxiter 250 
end
%output
Print[P_Hirshfeld] = 1
end
% maxcore
4000
*xyz 0 1
Pd   0.73239402   0.54744553  -0.44291284 
O    2.11566535   1.41842657   0.33175431 
C    1.59333415   2.64311977   0.30065329 
O    0.42106105   2.74899700  -0.10096682 
C    2.53193849   3.83039031   0.56858683 
H    1.96112611   4.64018715   1.02665934 
H    2.92214808   4.23370424  -0.38254578 
H    3.39757487   3.59105824   1.20052434 
N   -1.31315329  -0.42723435  -1.21374889 
C   -1.26025715  -1.24124001  -2.45099493 
H   -0.89620030  -0.58113466  -3.22390178 
H   -2.29026423  -1.53281365  -2.63833316 
H   -0.58654390  -2.11272238  -2.33038563 
C   -2.19460696   0.74692438  -1.37103396 
H   -2.23433816   1.36929786  -0.44954594 
H   -3.17412599   0.33587599  -1.63069631 
H   -1.79387114   1.25760769  -2.24702872 
C   -1.45760505  -0.84671495   1.35628304 
C   -0.63298596  -1.80298204   2.03949012 
C   -0.37015289  -1.64519579   3.39697297 
C   -1.28756621  -0.93447277   4.14351305 
C   -2.11776460   0.04887972   3.54103141 
C   -2.20029753   0.09284748   2.16107543 
H   -1.16093730  -0.75672995   5.18769932 
H   -2.97192954   0.49306936   4.02496300 
H   -0.05142490  -2.55739606   1.48286288 
H    0.26401874  -2.33729470   3.93396822 
H   -2.67007865   1.79599555   1.88939595 
C   -1.80626767  -1.27503913  -0.08679365 
H   -2.89848310  -1.34477904  -0.18892430 
H   -1.45113961  -2.31540198  -0.24472526 
O    1.84057895  -0.98366950  -1.12924249 
C    2.24032410  -0.68530004  -2.35692978 
O    1.71814252   0.06486545  -3.16824469 
C    3.53728883  -1.47555946  -2.66701231 
H    3.38976797  -2.56159142  -2.56975915 
H    4.36327634  -1.19237638  -1.99789010 
H    3.80617147  -1.24657571  -3.69294262 
*
