! EnGrad PBEh-3c
%output 
xyzfile=True 
end 
%scf 
maxiter 250 
end
%output
Print[P_Hirshfeld] = 1
end
% maxcore
4000
*xyz 0 1
Pd   0.67166610   0.54714728  -0.47644756 
O    2.15649343   1.46141201   0.35336157 
C    1.62038924   2.67195008   0.28860650 
O    0.45623379   2.76448288  -0.09145606 
C    2.51392319   3.87659807   0.56494342 
H    1.91666136   4.65783188   1.03428076 
H    2.88403179   4.27812984  -0.38388458 
H    3.37449465   3.64541373   1.19167054 
N   -1.27776293  -0.39956985  -1.20197062 
C   -1.26226788  -1.15117625  -2.46597271 
H   -0.92436153  -0.48557216  -3.24585352 
H   -2.29110465  -1.45419626  -2.67348364 
H   -0.61609213  -2.02082611  -2.41249864 
C   -2.17232853   0.75917626  -1.34122634 
H   -2.19951965   1.37256530  -0.44321475 
H   -3.17453437   0.38308060  -1.57050592 
H   -1.80842616   1.32825759  -2.18914339 
C   -1.44290557  -0.89284358   1.32220585 
C   -0.54600949  -1.75584593   2.03067362 
C   -0.34545869  -1.62308310   3.39003058 
C   -1.24994921  -0.89476684   4.11713056 
C   -2.21033504  -0.10648539   3.48319797 
C   -2.21927485  -0.00054577   2.12940456 
H   -1.14231005  -0.75579776   5.18253102 
H   -3.07204570   0.21402737   4.02247959 
H    0.06087244  -2.48504362   1.49399294 
H    0.34202538  -2.26545152   3.91863722 
H   -2.89295847   1.89200894   1.99124661 
C   -1.75970091  -1.30207335  -0.10470875 
H   -2.84889877  -1.40107819  -0.19330213 
H   -1.37514447  -2.31504070  -0.29630831 
O    1.80727055  -0.96496281  -1.10589791 
C    2.25596218  -0.73070865  -2.32914107 
O    1.78388997   0.03102691  -3.14378151 
C    3.51299406  -1.56921811  -2.64563938 
H    3.33532148  -2.63570998  -2.51928136 
H    4.33982571  -1.28630324  -2.00034081 
H    3.80689707  -1.38486722  -3.67991834 
*
