! EnGrad PBEh-3c
%output 
xyzfile=True 
end 
%scf 
maxiter 250 
end
%output
Print[P_Hirshfeld] = 1
end
% maxcore
4000
*xyz 0 1
Pd   0.32440482   0.10145863  -0.14851925 
O    1.90767874   1.21294429   0.76632442 
C    1.84403432   2.42949254   0.57981383 
O    0.82321867   2.96810552  -0.00961909 
C    3.03469913   3.31895716   0.78914030 
H    2.77502468   4.28612228   1.22377179 
H    3.53486096   3.54691630  -0.15685617 
H    3.76737293   2.82846439   1.42242475 
N   -1.21580971  -1.06682680  -0.88309379 
C   -0.75295478  -2.45773600  -1.00785261 
H    0.11621154  -2.52745093  -1.65356059 
H   -1.52060174  -3.10119831  -1.45595346 
H   -0.46823164  -2.86125544  -0.04114257 
C   -1.66930935  -0.62458592  -2.20849923 
H   -1.89444334   0.43867175  -2.19739123 
H   -2.56192778  -1.17294260  -2.53452661 
H   -0.91812043  -0.83134984  -2.96357154 
C   -1.95831286  -1.00770362   1.48023637 
C   -2.69436674  -1.59013105   2.50358561 
C   -2.29182742  -1.49037413   3.82480319 
C   -1.14101061  -0.80113181   4.14813134 
C   -0.38981716  -0.23926123   3.12465363 
C   -0.82711734  -0.28153838   1.80886347 
H   -0.81349828  -0.72427201   5.17804493 
H    0.55033653   0.17445259   3.46879336 
H   -3.60046227  -2.14146944   2.27887566 
H   -2.87143311  -1.94876383   4.61490325 
H   -0.33255061   4.17260517   0.31567098 
C   -2.36677583  -1.02178816   0.04511100 
H   -2.93855633  -0.10967172  -0.15295755 
H   -3.06458392  -1.85343325  -0.12084953 
O    1.25546591   0.75610560  -1.87978727 
C    1.99087257  -0.03394779  -2.56585316 
O    2.02327808  -1.23976463  -2.38559849 
C    2.89259480   0.59817975  -3.60689481 
H    3.25466195  -0.13685154  -4.32449943 
H    3.76925847   1.02270274  -3.10959520 
H    2.42772831   1.40826970  -4.16651514 
*
