! EnGrad PBEh-3c
%output 
xyzfile=True 
end 
%scf 
maxiter 250 
end
%output
Print[P_Hirshfeld] = 1
end
% maxcore
4000
*xyz 0 1
Pd   0.20954196   0.19322804   0.06089683 
O    1.66737722   1.59197154   0.62629974 
C    1.66114168   2.68451053   0.45035920 
O    0.43605071   3.13146128  -0.11148664 
C    2.86936842   3.53712127   0.71191022 
H    2.63622221   4.47107968   1.19253040 
H    3.35602462   3.69407604  -0.25472681 
H    3.63752087   3.00095788   1.33470105 
N   -1.28010021  -0.97947901  -0.86548300 
C   -0.85229334  -2.36385216  -1.19482312 
H   -0.01736141  -2.32989770  -1.91177992 
H   -1.71559815  -2.90370891  -1.62956587 
H   -0.54321140  -2.87867879  -0.27742718 
C   -1.75538582  -0.36866013  -2.13459686 
H   -1.92434312   0.70144111  -2.02219310 
H   -2.71893077  -0.83706553  -2.41574062 
H   -1.01205883  -0.48536928  -2.93288310 
C   -1.82053370  -1.10490429   1.49077583 
C   -2.51787682  -1.80669878   2.46986207 
C   -2.14148885  -1.72673071   3.79959308 
C   -1.09222751  -0.84056251   4.08068908 
C   -0.35705404  -0.12305731   3.09099022 
C   -0.65521013  -0.36162555   1.76398952 
H   -0.80800118  -0.75854039   5.11691423 
H    0.33027834   0.68794855   3.41370462 
H   -3.34465148  -2.47599670   2.19984969 
H   -2.67138447  -2.32688731   4.57459035 
H    0.15282798   3.35925927   0.78421331 
C   -2.38560495  -1.01752201   0.10255595 
H   -2.95885198  -0.08015724  -0.02690487 
H   -3.06442763  -1.85109844  -0.15087856 
O    1.31637523   0.60311806  -1.85774058 
C    2.08230366  -0.23738835  -2.45035249 
O    2.14052003  -1.44349316  -2.21803986 
C    3.06987446   0.31088632  -3.50932355 
H    3.44470192  -0.49691925  -4.14888364 
H    3.95659042   0.73429898  -3.01502512 
H    2.65739982   1.10905740  -4.13548298 
*
