! EnGrad PBEh-3c
%output 
xyzfile=True 
end 
%scf 
maxiter 250 
end
%output
Print[P_Hirshfeld] = 1
end
% maxcore
4000
*xyz 0 1
Pd   0.23851435   0.15603097  -0.07192154 
O    1.70015665   1.45117123   0.74583254 
C    1.65271073   2.63263213   0.36906434 
O    0.56486468   3.24623939  -0.05685882 
C    2.84426692   3.56115036   0.69127585 
H    2.64470571   4.53611539   1.19146280 
H    3.33076857   3.72963634  -0.26108289 
H    3.52868712   3.00780402   1.29421568 
N   -1.26389592  -0.97184847  -0.88225703 
C   -0.84892815  -2.35369432  -1.16770048 
H   -0.02382323  -2.34046386  -1.85847197 
H   -1.68575478  -2.90327464  -1.60599693 
H   -0.53993217  -2.87620222  -0.26961966 
C   -1.74676521  -0.36837376  -2.12667680 
H   -1.91983808   0.69801141  -2.02138722 
H   -2.68350294  -0.83808355  -2.42127477 
H   -1.01594674  -0.50385904  -2.90806397 
C   -1.84422602  -1.15142416   1.47708669 
C   -2.54023279  -1.81783099   2.46716572 
C   -2.12620096  -1.69805088   3.78110472 
C   -1.06956762  -0.84593435   4.08004427 
C   -0.35270048  -0.16498682   3.10077454 
C   -0.70898270  -0.36755280   1.74516109 
H   -0.79959498  -0.73135968   5.10795252 
H    0.37959163   0.62040338   3.35841278 
H   -3.37149886  -2.43191904   2.18593429 
H   -2.65824484  -2.27072261   4.53484156 
H    0.13915100   3.35732892   0.82476629 
C   -2.37628076  -1.01669220   0.09271524 
H   -2.94473991  -0.08593132  -0.00847668 
H   -3.07637730  -1.82514230  -0.14673638 
O    1.29848962   0.58882111  -1.83400616 
C    2.08667890  -0.24295907  -2.43125527 
O    2.13044627  -1.44190979  -2.21207874 
C    3.05058843   0.32048096  -3.49187369 
H    3.41582415  -0.47976436  -4.13716886 
H    3.93532530   0.73846073  -3.01655841 
H    2.63558552   1.10571610  -4.11847765 
*
