! EnGrad PBEh-3c
%output 
xyzfile=True 
end 
%scf 
maxiter 250 
end
%output
Print[P_Hirshfeld] = 1
end
% maxcore
4000
*xyz 0 1
Pd   0.23616539   0.16882062   0.07299581 
O    1.77331980   1.46570823   0.63322737 
C    1.68815350   2.64020014   0.50154162 
O    0.50758959   3.09135546  -0.05272644 
C    2.96351246   3.44455955   0.74683498 
H    2.66735933   4.37775164   1.19192653 
H    3.42910792   3.64548202  -0.22429457 
H    3.72654263   2.94819229   1.37949746 
N   -1.26694439  -1.01329237  -0.87957568 
C   -0.81621230  -2.40766112  -1.15165635 
H    0.02329951  -2.39095090  -1.85105767 
H   -1.66436113  -2.96185161  -1.58654873 
H   -0.52144332  -2.86798268  -0.21086425 
C   -1.73703208  -0.44793614  -2.17356599 
H   -1.91690284   0.62298135  -2.07171119 
H   -2.67849145  -0.94160056  -2.45139825 
H   -0.98540979  -0.58939970  -2.95190987 
C   -1.86120461  -1.03887351   1.50075776 
C   -2.56764621  -1.75550366   2.48316886 
C   -2.19330736  -1.66560697   3.81843594 
C   -1.11569222  -0.83719100   4.11611179 
C   -0.40534899  -0.14237609   3.10628024 
C   -0.66503332  -0.29600214   1.72407094 
H   -0.80774266  -0.75623788   5.16270183 
H    0.37082966   0.53241032   3.46079746 
H   -3.41786817  -2.39048350   2.23622286 
H   -2.72428418  -2.21534440   4.59472726 
H   -0.03687239   3.61196021   0.58856389 
C   -2.39192464  -1.01897844   0.10050190 
H   -2.95164880  -0.09524133  -0.06758777 
H   -3.05565236  -1.85918098  -0.14368868 
O    1.30649255   0.68044116  -1.88511270 
C    2.05386343  -0.18138421  -2.49006086 
O    2.11008523  -1.38982055  -2.27175380 
C    3.02941463   0.40261521  -3.54926212 
H    3.39387522  -0.39076965  -4.20812442 
H    3.90286835   0.82130531  -3.04241296 
H    2.59446015   1.20414217  -4.15463175 
*
