! EnGrad PBEh-3c
%output 
xyzfile=True 
end 
%scf 
maxiter 250 
end
%output
Print[P_Hirshfeld] = 1
end
% maxcore
4000
*xyz 0 1
Pd   0.17926203   0.20200327   0.13434867 
O    1.62225349   1.62400591   0.56998394 
C    1.51819936   2.84751474   0.43875345 
O    0.53180444   3.00710786  -0.14367500 
C    2.86559738   3.53848562   0.71087140 
H    2.61474648   4.46381544   1.18527270 
H    3.35112887   3.70277745  -0.26753437 
H    3.65645417   3.01546541   1.33774787 
N   -1.29106356  -0.97065430  -0.85587496 
C   -0.85873928  -2.36107169  -1.21875637 
H   -0.02473093  -2.30820612  -1.94914181 
H   -1.74302542  -2.88621098  -1.65101249 
H   -0.55101679  -2.88008986  -0.29993260 
C   -1.76630314  -0.34636872  -2.13268310 
H   -1.92882538   0.72782863  -2.00437706 
H   -2.74255102  -0.80767651  -2.40383306 
H   -1.01725981  -0.44903933  -2.93644398 
C   -1.80032314  -1.09576690   1.49418929 
C   -2.49900180  -1.82385115   2.46381964 
C   -2.12951443  -1.75586321   3.80418559 
C   -1.09574284  -0.84096181   4.07132509 
C   -0.36073153  -0.10542620   3.07517927 
C   -0.61099720  -0.36030295   1.74510022 
H   -0.80748220  -0.76599664   5.11952498 
H    0.30147562   0.75137690   3.42214256 
H   -3.31471831  -2.51803409   2.19564116 
H   -2.65306951  -2.37318768   4.57997926 
H    0.17423244   3.31899602   0.87068333 
C   -2.39273222  -1.01683571   0.11039071 
H   -2.96215330  -0.07834495  -0.01992192 
H   -3.06011225  -1.85916717  -0.15736552 
O    1.32619066   0.59654986  -1.85998722 
C    2.08671562  -0.26140539  -2.44518565 
O    2.15318537  -1.46155366  -2.20561967 
C    3.09135582   0.28445723  -3.50121043 
H    3.46707586  -0.53416804  -4.13445554 
H    3.97780437   0.70805664  -3.00506973 
H    2.68092612   1.08404289  -4.13516785 
*
