! EnGrad PBEh-3c
%output 
xyzfile=True 
end 
%scf 
maxiter 250 
end
%output
Print[P_Hirshfeld] = 1
end
% maxcore
4000
*xyz 0 1
Pd   0.23367528   0.17320411  -0.03257079 
O    1.69999050   1.45430562   0.71171657 
C    1.69379047   2.66660500   0.40153920 
O    0.49163856   3.19638445  -0.09448481 
C    2.87027263   3.54208915   0.70861351 
H    2.65226085   4.49805775   1.19871450 
H    3.35019148   3.69820507  -0.24810714 
H    3.58746407   2.99551495   1.31736210 
N   -1.26648866  -0.98084028  -0.87455612 
C   -0.84651099  -2.36142993  -1.16905976 
H   -0.01414035  -2.34689099  -1.86902299 
H   -1.68810385  -2.91585430  -1.60703969 
H   -0.53708929  -2.87771068  -0.25988782 
C   -1.74466492  -0.38431737  -2.13184485 
H   -1.92004765   0.68259147  -2.03432118 
H   -2.69181013  -0.85713376  -2.42522883 
H   -1.00922806  -0.51514008  -2.92173100 
C   -1.84163157  -1.12941055   1.48321220 
C   -2.54002796  -1.79669079   2.46995942 
C   -2.14260473  -1.69685424   3.79265526 
C   -1.08274258  -0.83880773   4.08201815 
C   -0.35025105  -0.15116456   3.10673415 
C   -0.70232952  -0.36821393   1.77174767 
H   -0.80608682  -0.74456547   5.10965026 
H    0.36827735   0.62797647   3.38886008 
H   -3.37083006  -2.43201128   2.19706383 
H   -2.68058865  -2.27932681   4.55814398 
H    0.12266526   3.40376790   0.78240116 
C   -2.37700022  -1.01709030   0.09209185 
H   -2.95252922  -0.08314139  -0.02666917 
H   -3.07139744  -1.83814366  -0.14509538 
O    1.30213811   0.60064788  -1.84402094 
C    2.08157292  -0.22828670  -2.44865713 
O    2.12787700  -1.42492913  -2.22573264 
C    3.04833912   0.33197501  -3.50755997 
H    3.42038441  -0.46644177  -4.15458042 
H    3.93526653   0.75345050  -3.02270681 
H    2.63422850   1.12482001  -4.12935039 
*
