! EnGrad PBEh-3c
%output 
xyzfile=True 
end 
%scf 
maxiter 250 
end
%output
Print[P_Hirshfeld] = 1
end
% maxcore
4000
*xyz 0 1
Pd   0.25067197   0.11615708  -0.03887916 
O    1.67853550   1.46669039   0.72997978 
C    1.69092236   2.63220746   0.46549237 
O    0.62547828   3.31075888   0.05715914 
C    2.81726640   3.56275393   0.64180575 
H    2.58858392   4.52953166   1.12255133 
H    3.30943271   3.81486133  -0.29957157 
H    3.47534418   3.01866833   1.27745293 
N   -1.28081383  -0.96837074  -0.88588147 
C   -0.85373102  -2.34569671  -1.17771887 
H   -0.01537626  -2.33354962  -1.85970747 
H   -1.69444707  -2.88255118  -1.61576951 
H   -0.54320842  -2.86369853  -0.27415718 
C   -1.75325541  -0.33038815  -2.12526311 
H   -1.92198794   0.73652996  -1.98024015 
H   -2.68528839  -0.80948396  -2.42629466 
H   -1.01554140  -0.47956703  -2.90277089 
C   -1.83682958  -1.13321096   1.45777027 
C   -2.50809063  -1.84787305   2.43876485 
C   -2.08506729  -1.71052097   3.75130977 
C   -1.04096201  -0.85364976   4.06897510 
C   -0.38272157  -0.16546648   3.02166506 
C   -0.69846136  -0.33674968   1.66984514 
H   -0.77478507  -0.69637833   5.12911908 
H    0.38129051   0.54732999   3.30676232 
H   -3.38716131  -2.45015385   2.17686829 
H   -2.60164810  -2.25216143   4.51683837 
H    0.08343111   3.30166436   0.84161957 
C   -2.38157974  -1.02400726   0.09369181 
H   -2.92728778  -0.08693721   0.03596659 
H   -3.08638063  -1.81242479  -0.16846472 
O    1.31192804   0.58513622  -1.84478631 
C    2.08798783  -0.27895580  -2.40304345 
O    2.13003058  -1.48203443  -2.17320095 
C    3.05066076   0.29189778  -3.45533330 
H    3.39800511  -0.51210070  -4.09710950 
H    3.94098381   0.71557666  -2.98487087 
H    2.62539268   1.07191031  -4.08972580 
*
