! EnGrad PBEh-3c
%output 
xyzfile=True 
end 
%scf 
maxiter 250 
end
%output
Print[P_Hirshfeld] = 1
end
% maxcore
4000
*xyz 0 1
Pd   0.25116449   0.11866831  -0.07682821 
O    1.67587116   1.45215398   0.75439042 
C    1.69553609   2.60997554   0.42586763 
O    0.63014673   3.33167149   0.02251035 
C    2.78733484   3.57209012   0.64135052 
H    2.60721854   4.56192063   1.14516597 
H    3.30495741   3.80618607  -0.29465664 
H    3.45025437   3.02142577   1.26775167 
N   -1.27418093  -0.96374998  -0.89039525 
C   -0.85538547  -2.34224861  -1.17384598 
H   -0.02623462  -2.33038289  -1.85378727 
H   -1.69008568  -2.87967089  -1.61175886 
H   -0.54389675  -2.86838205  -0.28080055 
C   -1.75308613  -0.33081970  -2.12169637 
H   -1.92133266   0.73381198  -1.98627916 
H   -2.67965716  -0.80572951  -2.42042201 
H   -1.02103094  -0.47978288  -2.89516013 
C   -1.84049353  -1.15561922   1.46339450 
C   -2.51704333  -1.85116380   2.44683104 
C   -2.09015647  -1.70906715   3.75530397 
C   -1.04348500  -0.85817114   4.07387563 
C   -0.37026375  -0.17067835   3.04596901 
C   -0.70713419  -0.34718353   1.67884609 
H   -0.77964906  -0.70061062   5.12382527 
H    0.38293022   0.57200474   3.30541137 
H   -3.38298236  -2.44736991   2.17111580 
H   -2.60551083  -2.25456681   4.50524132 
H    0.12044165   3.28706928   0.87083682 
C   -2.37838553  -1.02159073   0.09548186 
H   -2.92832358  -0.08929120   0.03242989 
H   -3.08508740  -1.80757797  -0.16086736 
O    1.30527199   0.57926560  -1.83554209 
C    2.09144384  -0.27995593  -2.40002460 
O    2.13307031  -1.47761742  -2.17922555 
C    3.05270489   0.29335276  -3.45855649 
H    3.40271491  -0.51029227  -4.09899885 
H    3.94103370   0.71262381  -2.99252947 
H    2.63254932   1.07001150  -4.09406079 
*
