! EnGrad PBEh-3c
%output 
xyzfile=True 
end 
%scf 
maxiter 250 
end
%output
Print[P_Hirshfeld] = 1
end
% maxcore
4000
*xyz 0 1
Pd   0.25733292   0.14261497  -0.00420719 
O    1.72598107   1.47480245   0.72542639 
C    1.69791586   2.67106190   0.51039448 
O    0.57713726   3.27740588   0.09011247 
C    2.92061193   3.52268738   0.67147976 
H    2.55000880   4.44541624   1.08987769 
H    3.33131711   3.79118902  -0.30574889 
H    3.62421747   3.00478725   1.32255821 
N   -1.27284742  -0.97854025  -0.88497629 
C   -0.84001990  -2.36213648  -1.17509351 
H    0.01619591  -2.35383403  -1.85395259 
H   -1.68760589  -2.91195901  -1.61744339 
H   -0.54174115  -2.84784904  -0.24396495 
C   -1.74302838  -0.35951193  -2.13492984 
H   -1.91967625   0.70872098  -1.98387925 
H   -2.68659848  -0.83479669  -2.45141496 
H   -0.99814271  -0.49001520  -2.91995697 
C   -1.85733803  -1.11121132   1.43831433 
C   -2.50967530  -1.80661316   2.43537740 
C   -2.08890921  -1.69731820   3.75517773 
C   -1.05221777  -0.82643724   4.04261969 
C   -0.37461964  -0.16568635   3.02567725 
C   -0.71775220  -0.34238492   1.69432737 
H   -0.76759230  -0.68791921   5.07478924 
H    0.42940652   0.48098588   3.31213408 
H   -3.37484195  -2.41500407   2.20222948 
H   -2.61123939  -2.23234335   4.55634392 
H   -0.09714807   3.37316883   0.76819710 
C   -2.39593866  -1.02058097   0.06627964 
H   -2.93845654  -0.07100669   0.01627184 
H   -3.09465136  -1.83301839  -0.18612040 
O    1.30597762   0.59050433  -1.83723700 
C    2.07443492  -0.25926009  -2.41711679 
O    2.10818178  -1.45689683  -2.16647315 
C    3.03653635   0.30735070  -3.46170003 
H    3.38071309  -0.49542664  -4.11096912 
H    3.91688526   0.73925477  -2.97108715 
H    2.58798897   1.09424500  -4.06824640 
*
