! EnGrad PBEh-3c
%output 
xyzfile=True 
end 
%scf 
maxiter 250 
end
%output
Print[P_Hirshfeld] = 1
end
% maxcore
4000
*xyz 0 1
Pd   0.25564142   0.14809317  -0.02346169 
O    1.73200459   1.46622783   0.74849027 
C    1.69248727   2.64696614   0.50014634 
O    0.58488688   3.30647412   0.10062854 
C    2.90244601   3.51442517   0.67158973 
H    2.56149891   4.45476635   1.10288682 
H    3.33747555   3.77495260  -0.30053685 
H    3.64641733   3.01697706   1.31412956 
N   -1.26954937  -0.97827637  -0.89696480 
C   -0.83796647  -2.36347269  -1.17276564 
H    0.01313057  -2.35717960  -1.84467315 
H   -1.67534258  -2.91465205  -1.61497242 
H   -0.54352241  -2.84606544  -0.24513720 
C   -1.74159040  -0.36187974  -2.14191008 
H   -1.91884197   0.69777840  -1.98709217 
H   -2.67649263  -0.83453572  -2.45418459 
H   -0.99933922  -0.48710484  -2.91731668 
C   -1.86383920  -1.11659528   1.44568692 
C   -2.51884828  -1.80534379   2.44889970 
C   -2.09880787  -1.69114070   3.76001368 
C   -1.05910163  -0.83160876   4.04429087 
C   -0.36597780  -0.17069178   3.02754488 
C   -0.71931071  -0.33779474   1.68440037 
H   -0.76059605  -0.68205471   5.06674309 
H    0.45658013   0.48087430   3.31089605 
H   -3.37276138  -2.41112554   2.20256383 
H   -2.60277051  -2.22309365   4.54810881 
H   -0.12429054   3.36227870   0.75169831 
C   -2.39788902  -1.01974630   0.06427753 
H   -2.94356847  -0.07207529   0.00151383 
H   -3.09396614  -1.82959484  -0.19001987 
O    1.29771011   0.59786394  -1.82692440 
C    2.06971783  -0.25902275  -2.40374877 
O    2.10584889  -1.45626542  -2.16745480 
C    3.03061614   0.30918851  -3.45958021 
H    3.37923131  -0.49083606  -4.11284450 
H    3.90684705   0.73945803  -2.96933331 
H    2.58119389   1.09682089  -4.06190435 
*
