! EnGrad PBEh-3c
%output 
xyzfile=True 
end 
%scf 
maxiter 250 
end
%output
Print[P_Hirshfeld] = 1
end
% maxcore
4000
*xyz 0 1
Pd   0.22875595   0.15086256  -0.02915716 
O    1.64423354   1.44297952   0.79446539 
C    1.67901889   2.64489107   0.58589976 
O    0.65832546   3.38946347   0.19127037 
C    2.91141531   3.49723030   0.69131274 
H    2.63761882   4.44104015   1.13961673 
H    3.34785428   3.68699339  -0.28490705 
H    3.70268082   3.05223717   1.26032157 
N   -1.26895247  -0.98771376  -0.89985999 
C   -0.82115884  -2.37164777  -1.15051524 
H    0.04347282  -2.38074358  -1.80922554 
H   -1.63404616  -2.95072550  -1.60693847 
H   -0.54327822  -2.84225470  -0.21036971 
C   -1.72442616  -0.38694554  -2.16577983 
H   -1.92479717   0.67484825  -2.01612606 
H   -2.65192630  -0.87626458  -2.49816854 
H   -0.96734383  -0.49235413  -2.94294000 
C   -1.88286349  -1.07121908   1.44129580 
C   -2.55129326  -1.75996695   2.44639692 
C   -2.11406919  -1.62445542   3.76376664 
C   -1.02354638  -0.80132284   4.03000231 
C   -0.31901198  -0.17975652   2.99712750 
C   -0.71500429  -0.32427867   1.66883142 
H   -0.71519669  -0.65977125   5.06209008 
H    0.54375774   0.39879101   3.28224852 
H   -3.40873307  -2.40053764   2.21309383 
H   -2.60740543  -2.18316021   4.56674556 
H   -0.20505547   3.23477406   0.60029127 
C   -2.39930633  -1.01316619   0.05011313 
H   -2.96092910  -0.08729815  -0.08114171 
H   -3.08857151  -1.82190962  -0.21461432 
O    1.28580862   0.62570988  -1.80051902 
C    2.03666142  -0.23865381  -2.38740188 
O    2.06679566  -1.43691261  -2.14746585 
C    2.97964792   0.33464013  -3.43974332 
H    3.34213580  -0.44162863  -4.10858134 
H    3.85697411   0.76276393  -2.95239693 
H    2.52589075   1.12843457  -4.02856933 
*
