! EnGrad PBEh-3c
%output 
xyzfile=True 
end 
%scf 
maxiter 250 
end
%output
Print[P_Hirshfeld] = 1
end
% maxcore
4000
*xyz 0 1
Pd   0.25509297   0.12729112  -0.02134164 
O    1.69850803   1.46529525   0.72866200 
C    1.69379098   2.66558596   0.48959971 
O    0.60625468   3.29393108   0.07526031 
C    2.87417095   3.55049605   0.65458265 
H    2.56311481   4.48551159   1.09876997 
H    3.31476684   3.81043377  -0.30532056 
H    3.54197220   3.01228285   1.29853949 
N   -1.27862260  -0.97259679  -0.88180203 
C   -0.84809179  -2.35124725  -1.17730196 
H    0.00168559  -2.34224826  -1.85846082 
H   -1.69407168  -2.89569250  -1.61823753 
H   -0.54276702  -2.85533820  -0.25908510 
C   -1.74810461  -0.34178008  -2.12694382 
H   -1.92113401   0.72804145  -1.97837547 
H   -2.68839339  -0.81889962  -2.43908435 
H   -1.00622118  -0.48184469  -2.91159339 
C   -1.84507225  -1.12302948   1.44422910 
C   -2.50434626  -1.82761906   2.42996412 
C   -2.08121602  -1.70547795   3.75060501 
C   -1.04125846  -0.83690677   4.05007924 
C   -0.37782575  -0.16513686   3.01813636 
C   -0.71096535  -0.34356495   1.68605085 
H   -0.77052339  -0.69036409   5.10081905 
H    0.40275014   0.50958860   3.30324828 
H   -3.38120565  -2.43430200   2.18848857 
H   -2.60488279  -2.24484158   4.53815117 
H   -0.00769882   3.33050994   0.81649377 
C   -2.38745396  -1.02266159   0.07843773 
H   -2.93176112  -0.07742198   0.03144044 
H   -3.09267179  -1.82256377  -0.17879363 
O    1.31056521   0.58275322  -1.84081421 
C    2.08298152  -0.27278305  -2.41026597 
O    2.11884069  -1.47035511  -2.16544027 
C    3.04348737   0.29550469  -3.45472697 
H    3.38860945  -0.50809492  -4.10010167 
H    3.93113621   0.72487240  -2.97529352 
H    2.60679345   1.07901874  -4.07655408 
*
