! EnGrad PBEh-3c
%output 
xyzfile=True 
end 
%scf 
maxiter 250 
end
%output
Print[P_Hirshfeld] = 1
end
% maxcore
4000
*xyz 0 1
Pd   0.24117542   0.15870213  -0.02259288 
O    1.71315380   1.44815113   0.76969923 
C    1.68358547   2.64205962   0.54837008 
O    0.60840707   3.33577499   0.14087808 
C    2.91625855   3.48561915   0.68844739 
H    2.59489846   4.42914477   1.12358888 
H    3.36062196   3.71591501  -0.28259544 
H    3.72154993   3.04610742   1.28919798 
N   -1.27077865  -0.98640984  -0.90216568 
C   -0.82775112  -2.36888332  -1.16196866 
H    0.03046575  -2.37638775  -1.82594502 
H   -1.64733505  -2.93972716  -1.61079960 
H   -0.54391738  -2.84037044  -0.22554776 
C   -1.73146709  -0.38379025  -2.15908634 
H   -1.91988809   0.67256449  -2.00304511 
H   -2.66223061  -0.85962084  -2.47888613 
H   -0.98153961  -0.49121711  -2.93521134 
C   -1.87391763  -1.08807047   1.44978894 
C   -2.54008877  -1.77773968   2.45413682 
C   -2.11906262  -1.65461177   3.76848919 
C   -1.04981938  -0.81456620   4.03316599 
C   -0.33991569  -0.17281166   3.01189843 
C   -0.71385483  -0.32431215   1.67498692 
H   -0.73720577  -0.66897609   5.05871145 
H    0.51539343   0.43426743   3.30942924 
H   -3.39062317  -2.40405468   2.21335066 
H   -2.60734704  -2.20378569   4.56671673 
H   -0.22114750   3.33929587   0.65965082 
C   -2.40067005  -1.01635033   0.05776905 
H   -2.95730823  -0.07807706  -0.05136246 
H   -3.09178746  -1.82867583  -0.20826002 
O    1.28798048   0.62139854  -1.81102451 
C    2.04918061  -0.24247858  -2.39169523 
O    2.08626754  -1.44291052  -2.16409430 
C    2.99979896   0.32355742  -3.45190916 
H    3.36309673  -0.46147461  -4.12059873 
H    3.87542891   0.75621496  -2.96096765 
H    2.54761518   1.12027126  -4.04368188 
*
