! EnGrad PBEh-3c
%output 
xyzfile=True 
end 
%scf 
maxiter 250 
end
%output
Print[P_Hirshfeld] = 1
end
% maxcore
4000
*xyz 0 1
Pd   0.25339799   0.15042349  -0.02177041 
O    1.73238504   1.46029592   0.75242096 
C    1.68950741   2.64998173   0.50982672 
O    0.59364270   3.31078698   0.10746093 
C    2.90456367   3.50627549   0.67371925 
H    2.56507498   4.44788547   1.10504264 
H    3.34316258   3.76492879  -0.29761867 
H    3.66609160   3.02260347   1.31130661 
N   -1.27006448  -0.98004234  -0.89923283 
C   -0.83590950  -2.36485585  -1.17156441 
H    0.01640915  -2.36107427  -1.84128142 
H   -1.66977538  -2.91915385  -1.61449247 
H   -0.54376403  -2.84421572  -0.24170451 
C   -1.74007493  -0.36585875  -2.14596415 
H   -1.91883795   0.69222782  -1.98904346 
H   -2.67340530  -0.83851456  -2.45877124 
H   -0.99636402  -0.48732201  -2.92046084 
C   -1.86611500  -1.11094331   1.44727644 
C   -2.52196424  -1.80036539   2.45046917 
C   -2.10327714  -1.68563202   3.76233216 
C   -1.05910635  -0.82926609   4.04146612 
C   -0.36245764  -0.17095068   3.02328634 
C   -0.71795241  -0.33370605   1.68039907 
H   -0.75572216  -0.67868677   5.06494587 
H    0.46917170   0.47095012   3.31123411 
H   -3.37525386  -2.40965187   2.20513991 
H   -2.60149933  -2.21846385   4.55099010 
H   -0.15387996   3.36200815   0.73661918 
C   -2.39895088  -1.01927207   0.06285490 
H   -2.94634810  -0.07269359  -0.00797811 
H   -3.09384902  -1.82990763  -0.19430376 
O    1.29559782   0.60340152  -1.82403722 
C    2.06568148  -0.25625962  -2.40031419 
O    2.10247040  -1.45461428  -2.16674592 
C    3.02494940   0.31127324  -3.45782785 
H    3.37633238  -0.48616306  -4.11456538 
H    3.90071014   0.74248128  -2.96697980 
H    2.57430477   1.10113890  -4.05788026 
*
