! EnGrad PBEh-3c
%output 
xyzfile=True 
end 
%scf 
maxiter 250 
end
%output
Print[P_Hirshfeld] = 1
end
% maxcore
4000
*xyz 0 1
Pd   0.25226699   0.12072064  -0.03730941 
O    1.68454401   1.46706136   0.73070768 
C    1.69396384   2.63575934   0.46896524 
O    0.61341694   3.30579221   0.05783056 
C    2.83595042   3.56199148   0.64754911 
H    2.58418810   4.51743660   1.11827513 
H    3.31077662   3.81038581  -0.29887496 
H    3.49327647   3.01634138   1.28320248 
N   -1.27981366  -0.96991246  -0.88370926 
C   -0.85229171  -2.34687913  -1.17676967 
H   -0.01067540  -2.33646291  -1.85897393 
H   -1.69396867  -2.88726246  -1.61574026 
H   -0.54273008  -2.86215319  -0.26921616 
C   -1.75120316  -0.33513206  -2.12507113 
H   -1.92161190   0.73278570  -1.98163313 
H   -2.68619711  -0.81364349  -2.42977811 
H   -1.01269731  -0.48173332  -2.90558195 
C   -1.83897794  -1.13131769   1.45450979 
C   -2.50796996  -1.84029240   2.43633302 
C   -2.08523737  -1.70808090   3.75193999 
C   -1.04132868  -0.84810196   4.06332843 
C   -0.37955291  -0.16546715   3.02311729 
C   -0.70409152  -0.34130634   1.68026417 
H   -0.77477794  -0.69616207   5.12075545 
H    0.38682162   0.53877908   3.30725254 
H   -3.38591443  -2.44471468   2.18027028 
H   -2.60592851  -2.25098569   4.52400858 
H    0.06314517   3.31203651   0.83314412 
C   -2.38213413  -1.02359390   0.08901238 
H   -2.92918170  -0.08391537   0.03329733 
H   -3.08808590  -1.81558121  -0.17029262 
O    1.31115708   0.58381300  -1.84333775 
C    2.08681737  -0.27596308  -2.40654125 
O    2.12672394  -1.47614624  -2.17278292 
C    3.04799039   0.29395472  -3.45648259 
H    3.39583013  -0.50933795  -4.09955378 
H    3.93826558   0.71943515  -2.98362921 
H    2.62052542   1.07541912  -4.08738006 
*
