! EnGrad PBEh-3c
%output 
xyzfile=True 
end 
%scf 
maxiter 250 
end
%output
Print[P_Hirshfeld] = 1
end
% maxcore
4000
*xyz 0 1
Pd   0.23499886   0.15626486  -0.02428956 
O    1.68465513   1.44212081   0.77958742 
C    1.68297158   2.64344608   0.57028397 
O    0.62433882   3.35738926   0.16552915 
C    2.91921535   3.48800853   0.69219582 
H    2.61302572   4.42891738   1.13045084 
H    3.35863780   3.69967533  -0.28075637 
H    3.71973696   3.05393847   1.27315555 
N   -1.27085796  -0.98761989  -0.90013890 
C   -0.82452645  -2.36967938  -1.15639800 
H    0.03760045  -2.38026422  -1.81845047 
H   -1.63988137  -2.94668911  -1.60938348 
H   -0.54375042  -2.84027951  -0.21783711 
C   -1.72738639  -0.38701647  -2.16252069 
H   -1.92185978   0.67184921  -2.00878881 
H   -2.65821764  -0.86843814  -2.48899170 
H   -0.97387291  -0.49177809  -2.94093114 
C   -1.87729285  -1.07792355   1.44616184 
C   -2.54617097  -1.76857711   2.44947384 
C   -2.11829582  -1.63871093   3.76733268 
C   -1.03670901  -0.80627145   4.03008822 
C   -0.32892378  -0.17501390   3.00410607 
C   -0.71322485  -0.32282902   1.67173855 
H   -0.72685991  -0.66389251   5.05935789 
H    0.53064741   0.41446213   3.29892048 
H   -3.40062313  -2.40343499   2.21410958 
H   -2.60861117  -2.19590774   4.57060556 
H   -0.22296141   3.30064117   0.62693547 
C   -2.40053384  -1.01490098   0.05460036 
H   -2.95962068  -0.08265049  -0.06737271 
H   -3.09048933  -1.82549714  -0.21305687 
O    1.28693030   0.62467511  -1.80567020 
C    2.04263816  -0.24004924  -2.38938101 
O    2.07694324  -1.43890446  -2.15704730 
C    2.98886501   0.32869025  -3.44624353 
H    3.35357808  -0.45109357  -4.11636191 
H    3.86542885   0.75999447  -2.95682156 
H    2.53625165   1.12499219  -4.03572661 
*
