! EnGrad PBEh-3c
%output 
xyzfile=True 
end 
%scf 
maxiter 250 
end
%output
Print[P_Hirshfeld] = 1
end
% maxcore
4000
*xyz 0 1
Pd   0.22610473   0.14462498  -0.03406237 
O    1.61061113   1.45506272   0.80908806 
C    1.68403281   2.64534356   0.58457701 
O    0.67155027   3.42361021   0.21398360 
C    2.89962354   3.50683928   0.68661960 
H    2.65600320   4.46482986   1.14534949 
H    3.32872027   3.68896950  -0.29648960 
H    3.66966393   3.03754778   1.25823753 
N   -1.26640935  -0.98692560  -0.90256128 
C   -0.82035794  -2.37311679  -1.14765121 
H    0.04475255  -2.37609502  -1.80298206 
H   -1.63435106  -2.94775843  -1.60422248 
H   -0.54271708  -2.84604770  -0.20750053 
C   -1.72419484  -0.38179656  -2.16648594 
H   -1.92727658   0.68140462  -2.02138924 
H   -2.64601102  -0.87760982  -2.50043723 
H   -0.96607030  -0.49235242  -2.93827762 
C   -1.88683632  -1.07290920   1.43838776 
C   -2.55227538  -1.75809349   2.44572589 
C   -2.10653936  -1.62110796   3.75809005 
C   -1.01696332  -0.80408427   4.03328924 
C   -0.31817572  -0.18642860   2.99449200 
C   -0.71923731  -0.32943105   1.66631581 
H   -0.70816017  -0.65976605   5.06620349 
H    0.54704927   0.39880125   3.26517804 
H   -3.40924140  -2.39513860   2.21049342 
H   -2.60396656  -2.17107221   4.55459688 
H   -0.15478587   3.16408416   0.58703845 
C   -2.39766256  -1.01243663   0.04670210 
H   -2.95984311  -0.08816340  -0.08270228 
H   -3.08729590  -1.82021161  -0.21094114 
O    1.28465373   0.62390304  -1.79919633 
C    2.03494822  -0.24252387  -2.38468811 
O    2.06192043  -1.43745660  -2.14090698 
C    2.97772943   0.33738948  -3.43520485 
H    3.33487278  -0.44052582  -4.10054122 
H    3.85658003   0.76261736  -2.94942656 
H    2.52296364   1.12805837  -4.02677374 
*
