! EnGrad PBEh-3c
%output 
xyzfile=True 
end 
%scf 
maxiter 250 
end
%output
Print[P_Hirshfeld] = 1
end
% maxcore
4000
*xyz 0 1
Pd   0.29864281   0.12540973  -0.05075318 
O    1.88403871   1.26931781   0.72723535 
C    1.84661048   2.47796477   0.55065319 
O    0.65328242   3.05155422  -0.02186941 
C    3.03206686   3.35420561   0.78880047 
H    2.73993730   4.30782748   1.21124343 
H    3.50157650   3.57582828  -0.17709576 
H    3.76081841   2.86880843   1.41033970 
N   -1.23194522  -1.05562099  -0.89488533 
C   -0.76789686  -2.45154444  -1.05601216 
H    0.08371249  -2.48527806  -1.71573383 
H   -1.56504048  -3.05524239  -1.49727737 
H   -0.48563776  -2.86035810  -0.09493006 
C   -1.69383375  -0.56975805  -2.20713103 
H   -1.90067276   0.49456086  -2.15788622 
H   -2.59698085  -1.10068013  -2.50668065 
H   -0.94040298  -0.75671583  -2.96001006 
C   -1.93238639  -1.01032465   1.49709173 
C   -2.66144498  -1.65500627   2.49890258 
C   -2.26519465  -1.54392311   3.82734561 
C   -1.13520057  -0.82082565   4.14519976 
C   -0.40488812  -0.20662989   3.13883622 
C   -0.75206566  -0.26757690   1.74094947 
H   -0.81092276  -0.73639529   5.18154805 
H    0.48577930   0.28085474   3.46818170 
H   -3.54449973  -2.22027715   2.27043559 
H   -2.82310750  -2.02795644   4.60672112 
H   -0.25841833   3.99809236   0.38031870 
C   -2.38494966  -1.01929520   0.07435505 
H   -2.94014665  -0.10755564  -0.12627457 
H   -3.05825337  -1.85333182  -0.12925735 
O    1.27292159   0.74857625  -1.89010795 
C    2.00819687  -0.08710043  -2.54109175 
O    2.05425766  -1.29308211  -2.35184436 
C    2.94245686   0.54273548  -3.59723988 
H    3.29830197  -0.21545386  -4.28857471 
H    3.81012319   0.95934935  -3.08904360 
H    2.48131894   1.34466351  -4.16452849 
*
