! EnGrad PBEh-3c
%output 
xyzfile=True 
end 
%scf 
maxiter 250 
end
%output
Print[P_Hirshfeld] = 1
end
% maxcore
4000
*xyz 0 1
Pd   0.26299776   0.16041802   0.05529960 
O    1.84652159   1.36473709   0.66932157 
C    1.78390343   2.56116585   0.50439434 
O    0.43234605   3.18752866   0.00389448 
C    3.00644826   3.41342573   0.76307511 
H    2.68608170   4.34833217   1.19350850 
H    3.45374472   3.62528023  -0.20639087 
H    3.75210638   2.92639525   1.39479743 
N   -1.25887571  -1.03280660  -0.89650922 
C   -0.80163409  -2.42648756  -1.13128423 
H    0.03680448  -2.42008548  -1.81684649 
H   -1.63522290  -2.98531326  -1.56455182 
H   -0.51139667  -2.86222138  -0.18172692 
C   -1.72821895  -0.48015711  -2.19108104 
H   -1.91240070   0.58529807  -2.09422231 
H   -2.65491117  -0.98714885  -2.46706846 
H   -0.97667547  -0.63830110  -2.95652050 
C   -1.88276232  -1.01425501   1.50862540 
C   -2.58944273  -1.73848085   2.49355600 
C   -2.21445988  -1.63239302   3.82365049 
C   -1.12470370  -0.84308056   4.13619787 
C   -0.42980031  -0.15301625   3.12620425 
C   -0.68179222  -0.26599282   1.70168692 
H   -0.80694064  -0.75317599   5.18287387 
H    0.38903686   0.45161580   3.47615209 
H   -3.45556754  -2.34821905   2.25186603 
H   -2.74488521  -2.15726111   4.59713215 
H   -0.10983466   3.69641267   0.46027099 
C   -2.39464398  -1.02129613   0.10261193 
H   -2.94737585  -0.10203081  -0.08292912 
H   -3.05229215  -1.85711465  -0.13861904 
O    1.30063693   0.71637530  -1.89944150 
C    2.04339585  -0.15904902  -2.50166447 
O    2.09635257  -1.36600117  -2.29577796 
C    3.01034810   0.44453563  -3.57087479 
H    3.36874524  -0.34087265  -4.23310542 
H    3.87716631   0.85956797  -3.05451179 
H    2.56651274   1.24453594  -4.16228993 
*
