! EnGrad PBEh-3c
%output 
xyzfile=True 
end 
%scf 
maxiter 250 
end
%output
Print[P_Hirshfeld] = 1
end
% maxcore
4000
*xyz 0 1
Pd   0.28838265   0.13548661  -0.02022668 
O    1.87323969   1.29678354   0.71056530 
C    1.82856073   2.50191358   0.53733792 
O    0.58968753   3.09069345  -0.01445347 
C    3.02469274   3.37125168   0.78139562 
H    2.72443537   4.31948645   1.20613856 
H    3.48780848   3.59006266  -0.18552814 
H    3.75831072   2.88538437   1.40586597 
N   -1.23969696  -1.04905404  -0.89535275 
C   -0.77760787  -2.44433201  -1.07767867 
H    0.07021037  -2.46651286  -1.74483836 
H   -1.58524197  -3.03511381  -1.51664182 
H   -0.49305227  -2.86089443  -0.11991389 
C   -1.70373128  -0.54396708  -2.20251116 
H   -1.90404856   0.52067889  -2.13956104 
H   -2.61365566  -1.06800100  -2.49527858 
H   -0.95084375  -0.72263103  -2.95900562 
C   -1.91810247  -1.01145598   1.50041161 
C   -2.64071966  -1.67903381   2.49736361 
C   -2.25059102  -1.56938852   3.82628199 
C   -1.13217912  -0.82723156   4.14260864 
C   -0.41205891  -0.19119760   3.13520020 
C   -0.73183797  -0.26712093   1.72964803 
H   -0.80977654  -0.74122549   5.18192968 
H    0.45793271   0.33000704   3.47047592 
H   -3.51890126  -2.25710428   2.26509048 
H   -2.80059180  -2.06517583   4.60396100 
H   -0.21564963   3.91125611   0.40333237 
C   -2.38774010  -1.01987116   0.08248858 
H   -2.94222752  -0.10596536  -0.11379790 
H   -3.05653748  -1.85442068  -0.13195204 
O    1.28089925   0.73930744  -1.89279454 
C    2.01832863  -0.10781030  -2.52974290 
O    2.06637436  -1.31407132  -2.33570606 
C    2.96199885   0.51446938  -3.58965089 
H    3.31857854  -0.25155472  -4.27260828 
H    3.82942105   0.93062803  -3.07910387 
H    2.50584134   1.31584254  -4.16388413 
*
