! EnGrad PBEh-3c
%output 
xyzfile=True 
end 
%scf 
maxiter 250 
end
%output
Print[P_Hirshfeld] = 1
end
% maxcore
4000
*xyz 0 1
Pd   0.29103219   0.13288440  -0.02810970 
O    1.87602838   1.28969091   0.71487010 
C    1.83322182   2.49572915   0.54077640 
O    0.60610999   3.08058631  -0.01636853 
C    3.02659700   3.36684978   0.78330782 
H    2.72843852   4.31647569   1.20745682 
H    3.49136387   3.58638684  -0.18335060 
H    3.75895829   2.88110387   1.40702125 
N   -1.23769519  -1.05074986  -0.89523205 
C   -0.77510014  -2.44619451  -1.07208360 
H    0.07369710  -2.47135870  -1.73732253 
H   -1.58002523  -3.04031172  -1.51164123 
H   -0.49113758  -2.86075593  -0.11346218 
C   -1.70117539  -0.55062723  -2.20370417 
H   -1.90317681   0.51393428  -2.14429325 
H   -2.60934963  -1.07643991  -2.49822300 
H   -0.94814757  -0.73143293  -2.95926500 
C   -1.92179108  -1.01116383   1.49955430 
C   -2.64607168  -1.67282905   2.49776102 
C   -2.25436220  -1.56281245   3.82655665 
C   -1.13295937  -0.82557733   4.14327776 
C   -0.41020716  -0.19518277   3.13613915 
C   -0.73706148  -0.26723868   1.73256647 
H   -0.81007253  -0.73997816   5.18183113 
H    0.46512369   0.31731417   3.46988347 
H   -3.52551170  -2.24759420   2.26647078 
H   -2.80640615  -2.05556446   4.60467376 
H   -0.22669403   3.93368031   0.39738943 
C   -2.38701951  -1.01972243   0.08038821 
H   -2.94169017  -0.10637602  -0.11701982 
H   -3.05698059  -1.85413950  -0.13125618 
O    1.27883913   0.74170098  -1.89210077 
C    2.01571225  -0.10246227  -2.53267357 
O    2.06324540  -1.30865116  -2.33987354 
C    2.95695241   0.52176869  -3.59161064 
H    3.31334241  -0.24223220  -4.27673138 
H    3.82443766   0.93804489  -3.08167066 
H    2.49950879   1.32328514  -4.16405053 
*
