! EnGrad PBEh-3c
%output 
xyzfile=True 
end 
%scf 
maxiter 250 
end
%output
Print[P_Hirshfeld] = 1
end
% maxcore
4000
*xyz 0 1
Pd   0.27011898   0.15542858   0.02867667 
O    1.84846159   1.35430237   0.67725710 
C    1.78220529   2.55143278   0.51302600 
O    0.47267200   3.16645645   0.00969059 
C    3.00443130   3.40578423   0.76353943 
H    2.69322049   4.34513464   1.19569645 
H    3.46087042   3.62073463  -0.20337098 
H    3.75018398   2.91931970   1.39507039 
N   -1.25502818  -1.03355404  -0.89423873 
C   -0.79891086  -2.42637562  -1.12217240 
H    0.04221362  -2.42778291  -1.80503227 
H   -1.62680651  -2.99381944  -1.55727060 
H   -0.50808102  -2.86267795  -0.17306433 
C   -1.72366206  -0.49042594  -2.18999240 
H   -1.91162810   0.57531480  -2.10093739 
H   -2.64785313  -1.00001810  -2.47263787 
H   -0.97334107  -0.65185322  -2.95662332 
C   -1.89036269  -1.01709622   1.50444761 
C   -2.59615938  -1.72585674   2.49248680 
C   -2.21693908  -1.62239109   3.82299657 
C   -1.12461145  -0.83730225   4.13606075 
C   -0.42644937  -0.15936533   3.12707358 
C   -0.70167544  -0.26819802   1.71958515 
H   -0.80741019  -0.75009298   5.18079671 
H    0.39982890   0.43160270   3.47659185 
H   -3.46280582  -2.33253549   2.25298733 
H   -2.75232066  -2.14293697   4.59820061 
H   -0.12558652   3.73291143   0.44521150 
C   -2.39024270  -1.02135997   0.09536561 
H   -2.94721879  -0.10343889  -0.08754788 
H   -3.05338261  -1.85753470  -0.13612476 
O    1.29726554   0.71597887  -1.89639175 
C    2.04076158  -0.14847488  -2.50645896 
O    2.08966092  -1.35500938  -2.30158779 
C    3.00099254   0.45471506  -3.57173142 
H    3.36049185  -0.32627211  -4.23930966 
H    3.86918823   0.87092958  -3.05826859 
H    2.55695474   1.25555339  -4.16212752 
*
