! EnGrad PBEh-3c
%output 
xyzfile=True 
end 
%scf 
maxiter 250 
end
%output
Print[P_Hirshfeld] = 1
end
% maxcore
4000
*xyz -1 1
Pd  -1.93031253  -1.48581543   0.46434865 
Cl  -2.93947363  -3.31615150  -0.54274538 
Cl   0.12971327  -5.11809252   0.14708608 
Cl  -3.83937149  -1.44078744   1.99788051 
N   -1.10759226   0.17520660   1.35977135 
C   -1.46809191   0.77975069   2.47560614 
C   -0.89412333   1.98274344   2.89286203 
C    0.08836635   2.55918471   2.14206820 
C   -0.11136062   0.71999849   0.59908479 
C    0.51119173   1.93650752   0.96522166 
H    0.54931829   3.49476814   2.45160043 
H   -2.23829850   0.28381729   3.04092265 
H   -1.24214633   2.44004231   3.81685983 
C    0.28220892  -0.00224526  -0.57509163 
C    1.52892910   2.44759312   0.10371503 
C    1.88933607   1.79386997  -1.01650409 
C    1.28922750   0.55657218  -1.39175670 
H    2.00849069   3.38734332   0.37558769 
H    2.66588667   2.20479408  -1.65584708 
C   -0.44268199  -1.21995395  -0.80427040 
C    1.65864136  -0.16172754  -2.53868025 
C    0.01852675  -1.86292989  -2.00497203 
C    1.04003419  -1.35382750  -2.83575182 
H    2.43277578   0.23307902  -3.19083869 
H    1.33711779  -1.90116140  -3.71831390 
H   -0.72963264  -4.35594673  -0.23506750 
H   -0.48932299  -2.77752339  -2.31927781 
*
