! EnGrad PBEh-3c
%output 
xyzfile=True 
end 
%scf 
maxiter 250 
end
%output
Print[P_Hirshfeld] = 1
end
% maxcore
4000
*xyz -1 1
Pd  -1.92486042  -1.48459640   0.45037569 
Cl  -2.92997994  -3.31455867  -0.54292987 
Cl   0.12048674  -5.11137712   0.16910813 
Cl  -3.84710594  -1.42322696   1.98930359 
N   -1.09824175   0.17395407   1.35490785 
C   -1.46393803   0.77141845   2.47731592 
C   -0.89513009   1.97739814   2.89974431 
C    0.09178398   2.56045698   2.14102076 
C   -0.10991599   0.71953603   0.60212147 
C    0.50935690   1.92961900   0.96170354 
H    0.54842860   3.49119289   2.45050558 
H   -2.23769874   0.27685255   3.04419537 
H   -1.23855389   2.43327543   3.81694074 
C    0.27396072  -0.00736754  -0.56543557 
C    1.52682336   2.45302374   0.10718294 
C    1.88901952   1.79491211  -1.02168286 
C    1.28743066   0.54907168  -1.39548273 
H    2.00370669   3.38630204   0.37393358 
H    2.66100331   2.20753001  -1.65787678 
C   -0.43587445  -1.22231223  -0.82165436 
C    1.66261958  -0.15722863  -2.54135655 
C    0.00923419  -1.86302908  -1.99052097 
C    1.03697551  -1.35267554  -2.82860239 
H    2.43157038   0.23730906  -3.19226363 
H    1.34109255  -1.90029718  -3.72218531 
H   -0.73412870  -4.34811271  -0.23427323 
H   -0.48147817  -2.77843067  -2.31956633 
*
