! EnGrad PBEh-3c
%output 
xyzfile=True 
end 
%scf 
maxiter 250 
end
%output
Print[P_Hirshfeld] = 1
end
% maxcore
4000
*xyz -1 1
Pd  -1.93884183  -1.48522393   0.46002632 
Cl  -2.92656090  -3.31409545  -0.54583959 
Cl   0.14497784  -5.13263714   0.18648276 
Cl  -3.84294397  -1.41722133   1.98209117 
N   -1.09287759   0.17502519   1.35253437 
C   -1.46231263   0.76831111   2.47474849 
C   -0.89428813   1.97519659   2.90119674 
C    0.09143742   2.55888740   2.14087189 
C   -0.10955129   0.71910469   0.60393560 
C    0.50928096   1.92839403   0.96109119 
H    0.54834478   3.49074552   2.45020609 
H   -2.23809105   0.27409177   3.04516966 
H   -1.23751733   2.43121406   3.81740904 
C    0.27075501  -0.00544281  -0.56214584 
C    1.52623025   2.45340094   0.10664287 
C    1.88750316   1.79440160  -1.02156765 
C    1.28373692   0.54507323  -1.39267400 
H    2.00246554   3.38670243   0.37362032 
H    2.65978739   2.20848095  -1.65905900 
C   -0.41901545  -1.21917562  -0.83881994 
C    1.66262797  -0.15800615  -2.54306090 
C    0.00589891  -1.86517190  -1.98955639 
C    1.03335371  -1.35249030  -2.82254236 
H    2.43161043   0.23874141  -3.19316273 
H    1.34061474  -1.89965401  -3.72082431 
H   -0.76147353  -4.32283367  -0.24359086 
H   -0.47851168  -2.77737495  -2.31861676 
*
