! EnGrad PBEh-3c
%output 
xyzfile=True 
end 
%scf 
maxiter 250 
end
%output
Print[P_Hirshfeld] = 1
end
% maxcore
4000
*xyz -1 1
Pd  -1.96062699  -1.47529453   0.45778774 
Cl  -2.89165074  -3.31402314  -0.56052852 
Cl   0.14242665  -5.12988379   0.25475175 
Cl  -3.84001744  -1.36322073   1.94015297 
N   -1.07953758   0.16526376   1.35224413 
C   -1.45090625   0.74696670   2.47613222 
C   -0.88520894   1.95324364   2.90530777 
C    0.08974566   2.54742901   2.14141582 
C   -0.10086774   0.71452215   0.60670467 
C    0.51097945   1.92569577   0.96096897 
H    0.54683055   3.48361513   2.44661279 
H   -2.23306150   0.25265377   3.04696647 
H   -1.22929130   2.41209316   3.82420350 
C    0.27169837  -0.00178647  -0.56295092 
C    1.51909414   2.45299382   0.10078306 
C    1.87565510   1.79011741  -1.02488404 
C    1.27569362   0.53799277  -1.38326464 
H    1.99074235   3.39072935   0.37091977 
H    2.64529199   2.21506543  -1.66753945 
C   -0.40177689  -1.20779100  -0.86085652 
C    1.65561134  -0.16108342  -2.54180903 
C    0.00979465  -1.87338695  -2.00135904 
C    1.02910873  -1.35609241  -2.81409241 
H    2.42858896   0.24992636  -3.19886747 
H    1.33835386  -1.89072826  -3.70796513 
H   -0.79909601  -4.28307525  -0.23927765 
H   -0.46222761  -2.78521322  -2.31427680 
*
