! EnGrad PBEh-3c
%output 
xyzfile=True 
end 
%scf 
maxiter 250 
end
%output
Print[P_Hirshfeld] = 1
end
% maxcore
4000
*xyz -1 1
Pd  -1.95937580  -1.44894874   0.43575975 
Cl  -2.83807495  -3.32050562  -0.58879456 
Cl   0.07973187  -5.07055852   0.32958778 
Cl  -3.84120483  -1.28064562   1.87708263 
N   -1.07293262   0.14599642   1.35632809 
C   -1.43603746   0.71912296   2.48577702 
C   -0.87031970   1.92304884   2.91426256 
C    0.09019462   2.53073387   2.14658101 
C   -0.09359473   0.70343730   0.60818463 
C    0.51328943   1.92000971   0.96396331 
H    0.54083508   3.47119167   2.44253754 
H   -2.21907770   0.22106411   3.04302812 
H   -1.21542547   2.37751428   3.83293839 
C    0.27719357  -0.00295916  -0.57279487 
C    1.50873000   2.45435415   0.09346910 
C    1.86712457   1.79485614  -1.02952650 
C    1.28265594   0.54446218  -1.38863021 
H    1.97233644   3.39611960   0.36305511 
H    2.61784876   2.21961063  -1.67937188 
C   -0.41906247  -1.20818168  -0.85362363 
C    1.65379047  -0.15655473  -2.54111592 
C    0.01849219  -1.87412951  -2.00777510 
C    1.03858368  -1.34968136  -2.81653013 
H    2.40863790   0.25679829  -3.19528381 
H    1.33841463  -1.88937865  -3.70242722 
H   -0.80424550  -4.27365046  -0.19572110 
H   -0.44578877  -2.80821337  -2.30906608 
*
