! EnGrad PBEh-3c
%output 
xyzfile=True 
end 
%scf 
maxiter 250 
end
%output
Print[P_Hirshfeld] = 1
end
% maxcore
4000
*xyz -1 1
C   -2.39352949  -0.13187923   0.75290946 
C   -1.91753799   0.93636125   1.53485066 
C   -3.72739705  -0.50494499   0.95301425 
C   -4.68103181   0.46621111   1.24186764 
C   -4.24008896   1.59801339   1.91211566 
C   -2.87473998   1.78627696   2.10052811 
H   -2.61791315  -1.29617514  -1.48236947 
H   -4.06353927  -1.52438978   0.81549366 
H   -2.61910418   2.80717574   2.37789285 
H   -5.73963199   0.24979071   1.16078570 
H   -4.97680470   2.29724728   2.28906349 
C   -0.51979453   1.48214308   1.40002584 
C    0.62147539   0.52901877   1.72069652 
H   -0.35016540   2.36648988   2.03481062 
H   -0.47760394   1.92573832   0.39910022 
C    1.75660494   0.65311865   0.74351154 
H    0.27075487  -0.50400658   1.76163201 
H    0.99605698   0.71511314   2.73529165 
C    1.72393150  -0.02162997  -0.48541934 
C    2.80198165   0.15132470  -1.35062309 
C    3.79506313   1.09418911  -1.11232770 
C    2.92843700   1.32233007   1.09519506 
C    3.81459846   1.74071436   0.11110447 
H    2.89275944  -0.42938499  -2.25926443 
H    4.53782804   1.31781608  -1.86895337 
H    3.02456800   1.71358908   2.10252313 
H    4.48399547   2.57614054   0.27411800 
Pd   0.31656296  -1.33279448  -0.84827384 
Br  -1.46059969  -3.75386429  -0.93567125 
P    1.36079618  -2.98881840   0.13209870 
H    0.79860352  -3.51687826   1.30883177 
C    0.47984759  -1.25337875  -3.88403923 
O    1.56282447  -1.70396895  -4.19198416 
O   -0.42794714  -1.92156774  -3.27528230 
O   -0.05954559  -0.15515483  -4.45274867 
H    2.65682966  -2.79464325   0.65803988 
H    1.67573733  -4.18272942  -0.53999032 
H    0.64771336   0.28740811  -4.92853680 
*
