! EnGrad PBEh-3c
%output 
xyzfile=True 
end 
%scf 
maxiter 250 
end
%output
Print[P_Hirshfeld] = 1
end
% maxcore
4000
*xyz -1 1
C   -2.35255220  -0.16182832   0.64720424 
C   -1.91449796   1.01721822   1.32613273 
C   -3.69150776  -0.51923485   0.79445806 
C   -4.65072235   0.39046093   1.26918293 
C   -4.24521711   1.61417289   1.78542063 
C   -2.88285478   1.89017458   1.85824793 
H   -2.05042143  -1.35453142  -0.93971592 
H   -4.00017228  -1.46368902   0.36246827 
H   -2.55717850   2.78223793   2.40141209 
H   -5.70891744   0.16738327   1.13687092 
H   -4.97533708   2.34947622   2.12804655 
C   -0.47400624   1.48965482   1.50892666 
C    0.64120669   0.44547522   1.81731868 
H   -0.48594601   2.21173937   2.33320481 
H   -0.15882650   2.03682552   0.61625867 
C    1.73485023   0.54541135   0.78852906 
H    0.22808401  -0.56402753   1.83944978 
H    1.06537689   0.63954358   2.81104182 
C    1.65842464  -0.13051820  -0.44870093 
C    2.67068537   0.13821014  -1.37915813 
C    3.66642495   1.09048658  -1.13254511 
C    2.81010166   1.40833880   1.05754519 
C    3.74767391   1.74097263   0.08931252 
H    2.68628024  -0.38078102  -2.33118984 
H    4.41471241   1.30876079  -1.88596257 
H    2.92797852   1.84609503   2.04623181 
H    4.56633734   2.43240680   0.31290904 
Pd   0.14512868  -1.49452735  -0.85429772 
Br  -1.58910420  -3.46874703  -0.77287600 
P    1.43021755  -2.96297749   0.11523431 
H    0.92669089  -3.55398827   1.26878681 
C    0.39216599  -1.30115408  -3.87453263 
O    1.53342151  -1.64430056  -4.20805905 
O   -0.40496050  -1.86550470  -3.09541564 
O   -0.10950174  -0.11821049  -4.39348230 
H    2.74576527  -2.72876372   0.50934809 
H    1.59240179  -4.10078301  -0.67373473 
H    0.64762877   0.26079959  -4.84032249 
*
