! EnGrad PBEh-3c
%output 
xyzfile=True 
end 
%scf 
maxiter 250 
end
%output
Print[P_Hirshfeld] = 1
end
% maxcore
4000
*xyz -1 1
C   -2.40818063  -0.14855398   0.79763862 
C   -1.92144556   0.96571101   1.45559474 
C   -3.73768479  -0.50006362   0.88731298 
C   -4.66864860   0.43037547   1.30512954 
C   -4.24452076   1.60322546   1.89160631 
C   -2.91199026   1.82177852   2.06636858 
H   -2.55025870  -1.30442358  -1.42577240 
H   -4.05124825  -1.52154293   0.76180264 
H   -2.59591250   2.79861996   2.39648224 
H   -5.73095594   0.24494965   1.14780456 
H   -4.96801667   2.30932929   2.27125490 
C   -0.51549089   1.50531123   1.42218084 
C    0.64834569   0.50516207   1.73656738 
H   -0.37724976   2.34897037   2.07373669 
H   -0.44366050   1.91809575   0.41866568 
C    1.78338474   0.60373999   0.77401514 
H    0.26491346  -0.50772584   1.76234998 
H    1.00387721   0.71452472   2.74044047 
C    1.74002631  -0.03016619  -0.47823547 
C    2.79019738   0.14615826  -1.37062040 
C    3.77488138   1.10676698  -1.11115111 
C    2.88466345   1.38924753   1.08357555 
C    3.82777324   1.72951961   0.11208425 
H    2.86803110  -0.43386192  -2.26979557 
H    4.52565929   1.31768190  -1.87046574 
H    3.02208412   1.72517358   2.10342923 
H    4.50090401   2.56031106   0.28650341 
Pd   0.22891962  -1.37182372  -0.90832191 
Br  -1.46069074  -3.71291843  -0.91142953 
P    1.38754248  -3.00056161   0.14989676 
H    0.80908850  -3.52036707   1.30075575 
C    0.41731167  -1.37469681  -3.95102726 
O    1.61779158  -1.65438121  -4.19011857 
O   -0.44556613  -1.89715332  -3.17479741 
O   -0.05390492  -0.10425053  -4.44150635 
H    2.66866215  -2.78465399   0.64470796 
H    1.65983564  -4.17215537  -0.55926104 
H    0.65795424   0.29651124  -4.92939236 
*
