! EnGrad PBEh-3c
%output 
xyzfile=True 
end 
%scf 
maxiter 250 
end
%output
Print[P_Hirshfeld] = 1
end
% maxcore
4000
*xyz -1 1
C   -2.39914331  -0.16459652   0.80255546 
C   -1.94699583   1.01629609   1.41916129 
C   -3.74582854  -0.50296380   0.85005273 
C   -4.68121025   0.40156523   1.33776908 
C   -4.26043130   1.60660900   1.87756069 
C   -2.89124901   1.83951125   2.00042590 
H   -2.46285221  -1.31358480  -1.34565798 
H   -4.04089942  -1.52319063   0.68335498 
H   -2.57552768   2.79823261   2.41637140 
H   -5.71967591   0.23508528   1.13968550 
H   -4.96872916   2.32563197   2.24871100 
C   -0.49911773   1.48836862   1.42933398 
C    0.64752151   0.49398916   1.75246213 
H   -0.40742370   2.34036963   2.13623924 
H   -0.39114733   1.92434492   0.44176715 
C    1.79758827   0.57120355   0.78266696 
H    0.25545082  -0.52090470   1.76846603 
H    1.01974189   0.70905561   2.75943995 
C    1.72074930  -0.06909401  -0.47636055 
C    2.77479768   0.15418940  -1.37382606 
C    3.75925867   1.10505060  -1.12270905 
C    2.86424761   1.43327441   1.07253854 
C    3.81891467   1.73470434   0.11955461 
H    2.83483478  -0.43678678  -2.29052923 
H    4.50804595   1.31845005  -1.87070510 
H    3.01387112   1.74925975   2.10395926 
H    4.52371397   2.53876180   0.29864051 
Pd   0.18187947  -1.41747774  -0.93493514 
Br  -1.46778214  -3.66342634  -0.88047079 
P    1.38832258  -2.98327080   0.13870127 
H    0.82302063  -3.53110139   1.30128274 
C    0.43744297  -1.35152346  -3.97183933 
O    1.57671788  -1.63399926  -4.19010697 
O   -0.44916669  -1.89967538  -3.13015607 
O   -0.05897691  -0.13270035  -4.42002080 
H    2.69586818  -2.77191130   0.63039195 
H    1.64403605  -4.16431910  -0.58395893 
H    0.67262817   0.29876058  -4.92387047 
*
