! EnGrad PBEh-3c
%output 
xyzfile=True 
end 
%scf 
maxiter 250 
end
%output
Print[P_Hirshfeld] = 1
end
% maxcore
4000
*xyz -1 1
C   -2.39229575  -0.17131015   0.78814269 
C   -1.94832740   1.03266810   1.39375135 
C   -3.74150876  -0.50612370   0.83799154 
C   -4.68486627   0.39125710   1.34574662 
C   -4.26615512   1.60490572   1.86706966 
C   -2.88467123   1.86450231   1.95507517 
H   -2.38695820  -1.32098143  -1.27377255 
H   -4.03429262  -1.52445967   0.61364243 
H   -2.56357635   2.79645945   2.42638911 
H   -5.72033789   0.22346578   1.13523831 
H   -4.97212907   2.33803362   2.22929643 
C   -0.49070097   1.48097196   1.44094540 
C    0.64395436   0.48425979   1.76657830 
H   -0.42953046   2.32498247   2.18275656 
H   -0.34328320   1.93633845   0.46261554 
C    1.79529023   0.55792874   0.78085167 
H    0.24803900  -0.53282321   1.77692259 
H    1.03237961   0.70092422   2.77515838 
C    1.70175543  -0.10043522  -0.47497297 
C    2.75526658   0.15494673  -1.37575777 
C    3.74630295   1.10187409  -1.12568769 
C    2.85302771   1.44515128   1.06770562 
C    3.80650633   1.74481648   0.11735614 
H    2.80657076  -0.43230784  -2.30365068 
H    4.49443525   1.31932081  -1.87310775 
H    3.00372276   1.77260309   2.10112107 
H    4.54210093   2.52003197   0.30685476 
Pd   0.16415942  -1.45282726  -0.93826295 
Br  -1.47865580  -3.62310997  -0.85473919 
P    1.38561721  -2.96629646   0.12658072 
H    0.83793080  -3.53956735   1.30021679 
C    0.43193032  -1.29769070  -3.94142629 
O    1.55923896  -1.63980416  -4.20193353 
O   -0.43967440  -1.90195092  -3.12723701 
O   -0.05889051  -0.15791042  -4.41629835 
H    2.71492601  -2.76197972   0.61474031 
H    1.63173343  -4.15561534  -0.60327139 
H    0.67075660   0.29111555  -4.90794549 
*
