! EnGrad PBEh-3c
%output 
xyzfile=True 
end 
%scf 
maxiter 250 
end
%output
Print[P_Hirshfeld] = 1
end
% maxcore
4000
*xyz -1 1
C   -2.38984414  -0.17238742   0.77233500 
C   -1.93877997   1.03059289   1.37139413 
C   -3.73457471  -0.50960681   0.83222574 
C   -4.68065081   0.38713143   1.34492821 
C   -4.26439156   1.60560016   1.85801774 
C   -2.89293185   1.88525711   1.92901076 
H   -2.32771782  -1.32645725  -1.21702734 
H   -4.02900832  -1.52146996   0.56133194 
H   -2.55655734   2.79472680   2.42999705 
H   -5.72442230   0.21346358   1.13259173 
H   -4.97397340   2.34500462   2.21340898 
C   -0.48826226   1.48558582   1.45448644 
C    0.64572539   0.47427084   1.77812710 
H   -0.44419318   2.30675812   2.21275241 
H   -0.30653835   1.94769441   0.48184125 
C    1.78703631   0.55122648   0.77995732 
H    0.24323190  -0.54074148   1.78502660 
H    1.04023782   0.69276247   2.78427789 
C    1.69285359  -0.11632060  -0.47246558 
C    2.73755443   0.15025711  -1.37954956 
C    3.73407107   1.10086850  -1.12328958 
C    2.84295351   1.44560560   1.06599900 
C    3.79764615   1.75092809   0.11036823 
H    2.78510244  -0.42514608  -2.31007401 
H    4.48411588   1.31953035  -1.87604809 
H    2.99417243   1.78985331   2.09598697 
H    4.55451343   2.50575901   0.31200881 
Pd   0.15368053  -1.47622221  -0.93616033 
Br  -1.48984943  -3.59318038  -0.83579254 
P    1.38907706  -2.95974487   0.12279406 
H    0.85158249  -3.54391881   1.29586090 
C    0.42414341  -1.29154586  -3.90509538 
O    1.55106612  -1.64275251  -4.21103862 
O   -0.42594369  -1.89209490  -3.13206372 
O   -0.06332570  -0.15197007  -4.42210442 
H    2.72378339  -2.75490469   0.59928263 
H    1.62234333  -4.14612551  -0.61681953 
H    0.66389347   0.28200717  -4.89247407 
*
