! EnGrad PBEh-3c
%output 
xyzfile=True 
end 
%scf 
maxiter 250 
end
%output
Print[P_Hirshfeld] = 1
end
% maxcore
4000
*xyz -1 1
C   -2.36263264  -0.16269798   0.66729140 
C   -1.91733199   1.01793987   1.32380831 
C   -3.70161478  -0.52380268   0.81110696 
C   -4.65754651   0.38730818   1.28899492 
C   -4.24829183   1.61404222   1.80304435 
C   -2.89195173   1.90526744   1.85245698 
H   -2.08517008  -1.34777661  -0.97632639 
H   -4.00508055  -1.47906966   0.37483093 
H   -2.55062541   2.78673344   2.41408248 
H   -5.72074626   0.17234502   1.13391880 
H   -4.97835272   2.35477893   2.14215418 
C   -0.47649637   1.49582210   1.50416275 
C    0.64595370   0.44452714   1.81590226 
H   -0.48646795   2.22318114   2.32089411 
H   -0.16898640   2.01822585   0.58921835 
C    1.73926027   0.54534275   0.78344235 
H    0.22879381  -0.56464099   1.82977818 
H    1.06492628   0.64803115   2.81064110 
C    1.66372197  -0.13968043  -0.45426917 
C    2.67550605   0.13621906  -1.38194713 
C    3.67635179   1.09170942  -1.12755847 
C    2.81226463   1.41355188   1.05888659 
C    3.75282776   1.75298735   0.08818272 
H    2.69894745  -0.38667649  -2.32989090 
H    4.42816229   1.31274770  -1.88447048 
H    2.94069669   1.84564391   2.05606499 
H    4.57753302   2.44406554   0.31817810 
Pd   0.14112201  -1.51601032  -0.87763332 
Br  -1.56442495  -3.48304990  -0.77340628 
P    1.42332852  -2.95930457   0.11799031 
H    0.91591503  -3.55347414   1.27071791 
C    0.40085529  -1.29403010  -3.84851814 
O    1.52934917  -1.64960541  -4.21628128 
O   -0.39488526  -1.86097430  -3.11749307 
O   -0.10831518  -0.12081459  -4.40770991 
H    2.74164072  -2.73047440   0.52226335 
H    1.59206035  -4.10336756  -0.66645284 
H    0.64985421   0.25825026  -4.84293544 
*
