9
	Energy:      -1.0854208
Pt        -2.40113        0.99419        7.75319
Cl        -2.24395        1.93384        9.90971
Cl        -4.21944       -0.32955        8.46080
Cl        -2.55479        0.05403        5.59651
C          0.57143        1.86854        6.91088
H          1.65054        1.94347        7.15630
H          0.16246        0.92661        7.33067
H          0.44147        1.86910        5.80898
H          0.03101        2.73336        7.34728
