! EnGrad PBEh-3c
%output 
xyzfile=True 
end 
%scf 
maxiter 250 
end
%output
Print[P_Hirshfeld] = 1
end
% maxcore
4000
*xyz -1 1
C   -1.76826314   0.02997318   0.51397226 
C   -1.63167894   1.04652507   1.49455382 
C   -3.10281738  -0.00307036  -0.04907263 
C   -4.11446525   0.90746545   0.23907498 
C   -3.85839197   1.94170571   1.11151330 
C   -2.62037552   2.01356492   1.74364205 
H   -1.83399132  -2.92840168  -2.22500101 
H   -3.34995058  -0.78022979  -0.75048964 
H   -2.50136290   2.74262291   2.51428549 
H   -5.09026934   0.79467889  -0.21012609 
H   -4.62679994   2.66301515   1.34982171 
C   -0.42677050   1.15366352   2.46773861 
C    0.81867881   0.28753903   2.26838406 
H   -0.82634869   0.91689898   3.45031697 
H   -0.11814044   2.16993697   2.49535135 
C    1.63042349   0.66933663   1.07407014 
H    0.57367165  -0.76370537   2.23900019 
H    1.44415600   0.41396886   3.16537243 
C    1.34221915   0.13821634  -0.19841492 
C    2.18339149   0.46757355  -1.25904209 
C    3.18970832   1.41934897  -1.10748863 
C    2.71323436   1.54529552   1.21206810 
C    3.44223329   1.98656528   0.11870500 
H    2.10808429  -0.04252017  -2.19307945 
H    3.84328666   1.64013981  -1.95438719 
H    3.03767587   1.83253530   2.21138690 
H    4.18934973   2.76246871   0.23291291 
Pd  -0.09269538  -1.30303571  -0.27880539 
Br  -1.61033580  -3.55569498   0.13229656 
P    1.54731965  -3.00031024  -0.29418398 
H    1.65846678  -3.71958191   0.91671765 
C   -0.02521577  -1.74122877  -3.73789604 
O    1.16817383  -1.68981706  -4.19840005 
O   -0.62658880  -2.78288652  -3.24504875 
O   -0.77334269  -0.60499935  -3.72934848 
H    2.88587857  -2.70665964  -0.43200198 
H    1.44418248  -4.09162149  -1.15051802 
H   -0.22397574   0.16986934  -3.94046247 
*
