! EnGrad PBEh-3c
%output 
xyzfile=True 
end 
%scf 
maxiter 250 
end
%output
Print[P_Hirshfeld] = 1
end
% maxcore
4000
*xyz -1 1
C   -1.68001786   0.05651265   0.49982521 
C   -1.56553952   1.03764890   1.51987734 
C   -2.94535683   0.06503682  -0.16433035 
C   -3.96478808   0.97829179   0.09244168 
C   -3.75112614   1.98574196   1.01430632 
C   -2.56208425   2.00685107   1.72373263 
H   -1.58022791  -3.06004938  -2.35772949 
H   -3.14025338  -0.67081772  -0.92835815 
H   -2.47242402   2.71551940   2.53154819 
H   -4.90492841   0.90041690  -0.43413004 
H   -4.52012044   2.71846511   1.21765989 
C   -0.43848675   1.07989061   2.55871250 
C    0.83505081   0.27188222   2.34925314 
H   -0.87760568   0.77179034   3.50945316 
H   -0.14963883   2.10454273   2.69715630 
C    1.60240231   0.68642393   1.13159663 
H    0.62267958  -0.79393661   2.31904656 
H    1.46880206   0.41532754   3.23739893 
C    1.28635576   0.14094229  -0.12371790 
C    2.07811698   0.50272082  -1.21241444 
C    3.08452580   1.45472772  -1.09354932 
C    2.66952445   1.57835255   1.24463676 
C    3.36378096   2.02920436   0.12829225 
H    1.95674273   0.01599982  -2.15890762 
H    3.69339248   1.69896492  -1.96391136 
H    2.99369377   1.89381921   2.23342577 
H    4.12047910   2.79296188   0.22177672 
Pd  -0.10838854  -1.31556510  -0.18154813 
Br  -1.65109205  -3.47353380   0.13123400 
P    1.53168010  -2.97757961  -0.36483093 
H    1.74331271  -3.74177923   0.80053515 
C   -0.09224918  -1.80962755  -3.67671235 
O    1.04937029  -1.72250159  -4.17909812 
O   -0.68690027  -2.95734355  -3.23114873 
O   -0.89565954  -0.74285073  -3.55031653 
H    2.86830358  -2.65576675  -0.59278822 
H    1.40515831  -4.05123473  -1.25736170 
H   -0.38780606   0.07262177  -3.68869200 
*
