! EnGrad PBEh-3c
%output 
xyzfile=True 
end 
%scf 
maxiter 250 
end
%output
Print[P_Hirshfeld] = 1
end
% maxcore
4000
*xyz -1 1
C   -1.70108112   0.09593565   0.46982286 
C   -1.56285112   1.06213645   1.47727394 
C   -2.98777819  -0.00352188  -0.10922930 
C   -4.03346409   0.84685178   0.22794426 
C   -3.83274836   1.86845683   1.13975859 
C   -2.60710139   1.94898356   1.75671363 
H   -1.36480735  -2.59497998  -2.50791490 
H   -3.21426625  -0.83754561  -0.76862858 
H   -2.41189070   2.73784349   2.46844014 
H   -5.00953428   0.70458642  -0.21483310 
H   -4.60041783   2.59257821   1.35462637 
C   -0.40857041   1.17710956   2.45309735 
C    0.83072553   0.31910287   2.29746084 
H   -0.82540988   0.94471310   3.43258069 
H   -0.10986684   2.22467856   2.49871498 
C    1.63102304   0.67541891   1.08263552 
H    0.55163037  -0.73842234   2.28700468 
H    1.43743779   0.46205096   3.19429047 
C    1.27449467   0.12656986  -0.15395996 
C    2.11466669   0.44192185  -1.23523896 
C    3.16459112   1.35499591  -1.10796027 
C    2.70618051   1.54699414   1.21617823 
C    3.44166676   1.94914714   0.11302208 
H    2.01893879  -0.04526836  -2.20019763 
H    3.78105072   1.62061328  -1.95961586 
H    2.95050088   1.92914637   2.20220930 
H    4.23424280   2.68466933   0.22960377 
Pd  -0.19898536  -1.26602048  -0.07975672 
Br  -1.68639705  -3.38074572  -0.07936636 
P    1.48450669  -2.92461022  -0.32102021 
H    1.61013505  -3.67437753   0.85839061 
C   -0.11030876  -1.80597673  -3.64616128 
O    1.01435155  -1.80770488  -4.08687283 
O   -0.76425330  -2.86548873  -3.21827294 
O   -0.82731893  -0.68081162  -3.54433324 
H    2.85927750  -2.68739123  -0.48302963 
H    1.41504617  -4.02313632  -1.18937764 
H   -0.25701870   0.04706796  -3.82325008 
*
