! EnGrad PBEh-3c
%output 
xyzfile=True 
end 
%scf 
maxiter 250 
end
%output
Print[P_Hirshfeld] = 1
end
% maxcore
4000
*xyz -1 1
C   -1.70193186   0.06887822   0.47864349 
C   -1.56472321   1.06013735   1.46022445 
C   -3.00076936  -0.03926472  -0.06547783 
C   -4.05808709   0.80358527   0.26713797 
C   -3.84670427   1.84203137   1.16606406 
C   -2.60161595   1.96075951   1.74608876 
H   -1.39704687  -2.53205653  -2.48118233 
H   -3.22693570  -0.87001441  -0.72162138 
H   -2.41246547   2.75064007   2.47756486 
H   -5.04965524   0.64208117  -0.15778778 
H   -4.63099021   2.55063981   1.39931141 
C   -0.40840880   1.20727343   2.41792971 
C    0.82556917   0.33921316   2.28888837 
H   -0.81142510   1.01136797   3.41566980 
H   -0.08632498   2.25595364   2.43298445 
C    1.63406538   0.67582099   1.07867656 
H    0.53609322  -0.71271527   2.28586341 
H    1.43531332   0.47595333   3.18659409 
C    1.28745244   0.12676172  -0.15764392 
C    2.13021049   0.43010093  -1.23689544 
C    3.18134801   1.33449446  -1.10963436 
C    2.70688968   1.54715500   1.20897750 
C    3.46383366   1.91634632   0.11301404 
H    2.01829500  -0.05896945  -2.20017017 
H    3.79699419   1.57990973  -1.96210934 
H    2.94064690   1.93989187   2.19064917 
H    4.26198465   2.63887565   0.22120038 
Pd  -0.17222734  -1.27510118  -0.12489033 
Br  -1.72154774  -3.35903067  -0.11901288 
P    1.46663945  -2.91394596  -0.30518524 
H    1.57028123  -3.65800391   0.88149111 
C   -0.07413755  -1.79744678  -3.67071675 
O    1.03937492  -1.80095935  -4.09756541 
O   -0.78246479  -2.79422672  -3.23224734 
O   -0.76755034  -0.68524550  -3.57150162 
H    2.84816314  -2.67953977  -0.44597627 
H    1.41029662  -4.01295291  -1.17372160 
H   -0.22998498   0.05659514  -3.84644477 
*
