! EnGrad PBEh-3c
%output 
xyzfile=True 
end 
%scf 
maxiter 250 
end
%output
Print[P_Hirshfeld] = 1
end
% maxcore
4000
*xyz -1 1
C   -1.65957787   0.05826649   0.47255935 
C   -1.56578423   1.02752022   1.51256175 
C   -2.94246671   0.04882663  -0.14841123 
C   -3.97218098   0.95988279   0.11143747 
C   -3.76942003   1.97320976   1.03471272 
C   -2.57833125   1.98938414   1.73048033 
H   -1.45686519  -2.98492208  -2.46420949 
H   -3.15836959  -0.69649450  -0.90542365 
H   -2.46288289   2.73054300   2.52271055 
H   -4.93032208   0.87617198  -0.39948699 
H   -4.53688285   2.70750133   1.24047649 
C   -0.43985664   1.09457897   2.54469692 
C    0.83120493   0.27807322   2.34317273 
H   -0.87181722   0.79249757   3.50226450 
H   -0.14201624   2.13284025   2.67002340 
C    1.62113163   0.66915996   1.12295090 
H    0.61249919  -0.78976695   2.30842009 
H    1.46154763   0.42290296   3.22587561 
C    1.28329592   0.14061700  -0.13356556 
C    2.09418653   0.49345588  -1.21756118 
C    3.09698126   1.45058188  -1.10180238 
C    2.66560707   1.58537138   1.24019784 
C    3.38369409   2.01244056   0.13071988 
H    1.97088792   0.00105688  -2.17182721 
H    3.70994840   1.68836236  -1.96166969 
H    2.99246752   1.89412364   2.22910880 
H    4.13839537   2.78436016   0.22382258 
Pd  -0.17196980  -1.29351312  -0.13906675 
Br  -1.64593952  -3.46196251   0.09011552 
P    1.52856999  -2.97178121  -0.35945161 
H    1.72429389  -3.73422662   0.81224974 
C   -0.10041396  -1.82125799  -3.67433334 
O    1.00779253  -1.74400394  -4.14443390 
O   -0.76036662  -2.94148346  -3.14973194 
O   -0.88186521  -0.72842653  -3.55152561 
H    2.87854113  -2.66244620  -0.57717304 
H    1.40707621  -4.05271582  -1.24967354 
H   -0.36210586   0.07692082  -3.71344626 
*
