! EnGrad PBEh-3c
%output 
xyzfile=True 
end 
%scf 
maxiter 250 
end
%output
Print[P_Hirshfeld] = 1
end
% maxcore
4000
*xyz -1 1
C   -1.65747977   0.07250237   0.45746223 
C   -1.56187001   1.02030081   1.50351311 
C   -2.93873232   0.03481710  -0.13777999 
C   -3.97572001   0.93811043   0.13036000 
C   -3.78590085   1.95843373   1.05275066 
C   -2.58798673   1.96887346   1.73780121 
H   -1.36925569  -2.90225449  -2.53807830 
H   -3.17450216  -0.72140338  -0.88200756 
H   -2.45289584   2.74065307   2.51188204 
H   -4.95030643   0.85167470  -0.36571842 
H   -4.55362480   2.69720087   1.26221867 
C   -0.44172934   1.10523870   2.52509806 
C    0.83176569   0.28375656   2.33478421 
H   -0.86646068   0.81353154   3.49647377 
H   -0.13485176   2.16049666   2.64367304 
C    1.63289346   0.66020897   1.11231971 
H    0.60121238  -0.78524693   2.30017856 
H    1.45498424   0.43009481   3.21689412 
C    1.27636654   0.13512718  -0.13798509 
C    2.10400334   0.48508395  -1.22063262 
C    3.11163706   1.44195311  -1.10702902 
C    2.66747684   1.58600035   1.23658180 
C    3.39809361   1.99950908   0.13162539 
H    1.98369115  -0.01210960  -2.18446808 
H    3.72626073   1.67958954  -1.96149419 
H    2.98905901   1.89691054   2.22510865 
H    4.15621152   2.77402395   0.22610404 
Pd  -0.21656591  -1.27676288  -0.10261267 
Br  -1.64198544  -3.44908973   0.05564584 
P    1.51668343  -2.96324505  -0.35265817 
H    1.70587530  -3.72588910   0.82213139 
C   -0.13726226  -1.82813178  -3.63753131 
O    0.96244711  -1.78458898  -4.11192043 
O   -0.76385556  -2.90784675  -3.13639854 
O   -0.86801637  -0.72014379  -3.55560470 
H    2.88931201  -2.66845707  -0.56270987 
H    1.40986090  -4.05327054  -1.24184944 
H   -0.33912831   0.07396212  -3.73655371 
*
