! EnGrad PBEh-3c
%output 
xyzfile=True 
end 
%scf 
maxiter 250 
end
%output
Print[P_Hirshfeld] = 1
end
% maxcore
4000
*xyz -1 1
C   -1.67427678   0.10442697   0.45146936 
C   -1.55835896   1.02879394   1.49129120 
C   -2.94967381   0.01782260  -0.13275391 
C   -3.98870371   0.89614608   0.16408653 
C   -3.80579695   1.92300160   1.08535902 
C   -2.59770802   1.94073176   1.75339173 
H   -1.38787507  -2.74574509  -2.50099209 
H   -3.19644678  -0.76681309  -0.83782299 
H   -2.43358951   2.74171854   2.48509031 
H   -4.97047066   0.80202668  -0.30346996 
H   -4.57964612   2.67153485   1.29920426 
C   -0.43154565   1.12876573   2.49330130 
C    0.83548675   0.29278443   2.31364896 
H   -0.85456152   0.85609010   3.47895219 
H   -0.12696540   2.19597465   2.59279149 
C    1.63645702   0.65948626   1.09651807 
H    0.58002167  -0.77323587   2.29071474 
H    1.44532767   0.44327916   3.20687723 
C    1.26593001   0.12353106  -0.14317303 
C    2.10686034   0.46637929  -1.22768216 
C    3.13637868   1.41200417  -1.10679921 
C    2.68297489   1.57288923   1.22802536 
C    3.41773463   1.98525993   0.12803786 
H    2.00405035  -0.02928391  -2.19958613 
H    3.75536768   1.66507026  -1.96498971 
H    2.97726362   1.90787197   2.21881415 
H    4.18765507   2.74759532   0.23054681 
Pd  -0.25075059  -1.25868245  -0.05657668 
Br  -1.64392389  -3.42292341  -0.00213311 
P    1.49494586  -2.94494278  -0.34029465 
H    1.67108902  -3.70778653   0.83647341 
C   -0.14183750  -1.75390672  -3.60184195 
O    0.92337472  -1.86665346  -4.07251069 
O   -0.65371507  -2.93026161  -3.25286987 
O   -0.88544458  -0.68666475  -3.54769845 
H    2.89541211  -2.67936047  -0.53575092 
H    1.41507513  -4.04828595  -1.22426208 
H   -0.29759451   0.04859982  -3.77566771 
*
