! EnGrad PBEh-3c
%output 
xyzfile=True 
end 
%scf 
maxiter 250 
end
%output
Print[P_Hirshfeld] = 1
end
% maxcore
4000
*xyz 0 1
Pd   0.55942753   0.43736960  -0.41644327 
O    2.11117102   1.42351435   0.55509364 
C    1.64392141   2.66482377   0.29287970 
O    0.59394047   2.79488078  -0.16029777 
C    2.62160531   3.82118110   0.58716904 
H    2.06582868   4.63848720   1.05280824 
H    3.00611758   4.19398876  -0.36110488 
H    3.46042385   3.54629915   1.21655346 
N   -1.30184242  -0.56070302  -1.12830648 
C   -1.23401603  -1.43643338  -2.30048333 
H   -0.89595386  -0.89710065  -3.17669702 
H   -2.24218219  -1.78951037  -2.55591718 
H   -0.59088033  -2.27020281  -2.12947859 
C   -2.13603581   0.57523931  -1.47889051 
H   -2.23865946   1.27428362  -0.67636491 
H   -3.14924916   0.24309596  -1.76172741 
H   -1.70921059   1.09536380  -2.32082093 
C   -1.53516947  -0.93177441   1.34498243 
C   -0.77359000  -1.89598782   2.11273400 
C   -0.63008607  -1.80313223   3.47303312 
C   -1.20203020  -0.78309558   4.13726219 
C   -2.02993740   0.13614716   3.44385659 
C   -2.07479413   0.11937054   2.11066772 
H   -1.04310959  -0.66667917   5.21022344 
H   -2.60597462   0.74714993   4.04131051 
H   -0.36833147  -2.74693461   1.63038879 
H   -0.12261308  -2.56747533   4.01883895 
H   -2.65876607   2.52749951   1.85404569 
C   -1.93996780  -1.33714446  -0.00478105 
H   -3.03702076  -1.24531178  -0.05097445 
H   -1.79790584  -2.39244311  -0.15528540 
O    1.89211444  -0.80678898  -1.17345431 
C    2.27318219  -0.60409267  -2.42571789 
O    1.66399442  -0.01318091  -3.22699363 
C    3.60533409  -1.25801530  -2.80492290 
H    3.52225310  -2.32510674  -2.82233530 
H    4.39020823  -0.97590007  -2.13407870 
H    3.90908587  -0.93308488  -3.81598787 
*
