! EnGrad PBEh-3c
%output 
xyzfile=True 
end 
%scf 
maxiter 250 
end
%output
Print[P_Hirshfeld] = 1
end
% maxcore
4000
*xyz 0 1
Pd   0.54341946   0.43210755  -0.43834785 
O    2.10262580   1.46979623   0.55480420 
C    1.70624501   2.65483910   0.30856643 
O    0.56717318   2.78353452  -0.16856244 
C    2.60849255   3.83194838   0.58624560 
H    2.05290462   4.64421691   1.05326966 
H    2.99380636   4.20606065  -0.36331170 
H    3.45271648   3.55815314   1.21250885 
N   -1.26633836  -0.55324370  -1.10341802 
C   -1.24480162  -1.39622494  -2.31828028 
H   -0.91278469  -0.85977535  -3.20234840 
H   -2.24721281  -1.76216031  -2.58263574 
H   -0.59782514  -2.24703452  -2.17060656 
C   -2.13958552   0.57342844  -1.46909070 
H   -2.23748377   1.27609072  -0.66163978 
H   -3.15806152   0.26981269  -1.74455125 
H   -1.72285496   1.12972758  -2.30078857 
C   -1.51298451  -0.94128338   1.35991152 
C   -0.73853349  -1.86327679   2.08749449 
C   -0.61741675  -1.80161309   3.45623098 
C   -1.19817739  -0.76749871   4.13724309 
C   -2.05778975   0.08464876   3.44552905 
C   -2.10399349   0.11284491   2.07098829 
H   -1.04497774  -0.67375132   5.20695359 
H   -2.68381024   0.69530531   4.05794324 
H   -0.29021400  -2.72168205   1.61718090 
H   -0.06529970  -2.54843931   4.00263265 
H   -2.69919840   2.51949627   1.89424492 
C   -1.92749978  -1.33382556  -0.01803982 
H   -3.02696437  -1.28395460  -0.05620634 
H   -1.76164439  -2.40037143  -0.16950421 
O    1.86907531  -0.81730512  -1.16092428 
C    2.28244489  -0.63506039  -2.38443264 
O    1.69359262   0.01910236  -3.19983876 
C    3.58949139  -1.28358621  -2.80656574 
H    3.49020135  -2.36258739  -2.79145947 
H    4.39191076  -1.00967731  -2.12953441 
H    3.91171952  -0.99916710  -3.81142305 
*
