! EnGrad PBEh-3c
%output 
xyzfile=True 
end 
%scf 
maxiter 250 
end
%output
Print[P_Hirshfeld] = 1
end
% maxcore
4000
*xyz 0 1
Pd   0.60814954   0.43545122  -0.34757235 
O    2.09041863   1.35598822   0.53449808 
C    1.59865803   2.62212401   0.30249852 
O    0.58946568   2.84254244  -0.16903974 
C    2.64431816   3.77994851   0.58852127 
H    2.11222309   4.62011275   1.05093546 
H    3.04798483   4.15373358  -0.35509516 
H    3.48493817   3.50256608   1.23019003 
N   -1.38536253  -0.59490129  -1.17443745 
C   -1.21615291  -1.55221661  -2.24497934 
H   -0.83987584  -1.02277453  -3.09667879 
H   -2.22449603  -1.88526146  -2.47262502 
H   -0.56255906  -2.35534582  -1.99060145 
C   -2.13744509   0.56209809  -1.52269485 
H   -2.24228340   1.27119853  -0.72293758 
H   -3.12022365   0.16312398  -1.81800796 
H   -1.66364562   0.98798173  -2.39027300 
C   -1.57620299  -0.92743436   1.35281695 
C   -0.91815899  -1.96024753   2.16585310 
C   -0.67862432  -1.82602607   3.51725204 
C   -1.22937691  -0.79437148   4.15149622 
C   -1.90105972   0.25962003   3.46015836 
C   -1.98425804   0.15076348   2.18350394 
H   -1.03627320  -0.64475414   5.21626583 
H   -2.36802302   0.93879576   4.00545303 
H   -0.61752373  -2.84515512   1.67040080 
H   -0.30544280  -2.63701276   4.07814613 
H   -2.52609089   2.55738573   1.72374230 
C   -1.99689483  -1.32497820   0.01688281 
H   -3.07173907  -1.12290650  -0.03149868 
H   -1.91607810  -2.37772980  -0.11006691 
O    1.96555812  -0.75356408  -1.22820315 
C    2.27464338  -0.55935024  -2.49329301 
O    1.53614254  -0.08400843  -3.36261956 
C    3.64830938  -1.14755693  -2.82662635 
H    3.62449455  -2.21144082  -2.92446587 
H    4.39249335  -0.86074548  -2.14134997 
H    3.90448197  -0.72071479  -3.82388500 
*
