! EnGrad PBEh-3c
%output 
xyzfile=True 
end 
%scf 
maxiter 250 
end
%output
Print[P_Hirshfeld] = 1
end
% maxcore
4000
*xyz 0 1
Pd   0.56062329   0.43299622  -0.41422172 
O    2.09938141   1.43954857   0.54940728 
C    1.67765076   2.64614415   0.30695372 
O    0.57309804   2.79921752  -0.16868930 
C    2.61801421   3.81812796   0.58685043 
H    2.06867017   4.63781055   1.05264928 
H    3.00820581   4.19215327  -0.36112792 
H    3.46128030   3.54337932   1.21720812 
N   -1.29797237  -0.56431537  -1.12229342 
C   -1.23718742  -1.43768409  -2.29879851 
H   -0.89340712  -0.90309695  -3.17426375 
H   -2.24117519  -1.79487789  -2.55339731 
H   -0.58845219  -2.27582128  -2.12276516 
C   -2.13901664   0.57041708  -1.48333751 
H   -2.23875941   1.27479048  -0.67793138 
H   -3.14800504   0.24145718  -1.76407443 
H   -1.70711842   1.09205465  -2.32457156 
C   -1.52978659  -0.93760261   1.35802594 
C   -0.78627399  -1.88904948   2.10832048 
C   -0.63368438  -1.80810152   3.47244903 
C   -1.20646954  -0.77464090   4.14103126 
C   -2.01613436   0.13115227   3.44941720 
C   -2.07217045   0.12292283   2.10089248 
H   -1.04266426  -0.66604451   5.20942858 
H   -2.59988095   0.76001972   4.04399250 
H   -0.37720572  -2.75449847   1.63132558 
H   -0.12912445  -2.57198018   4.02270247 
H   -2.65319023   2.52956645   1.84892908 
C   -1.94594345  -1.33147412  -0.00875816 
H   -3.03886450  -1.24115156  -0.04963959 
H   -1.80268947  -2.39435379  -0.15370708 
O    1.89471832  -0.80036416  -1.17880552 
C    2.28037142  -0.61493830  -2.41336533 
O    1.65174585  -0.00830222  -3.24310231 
C    3.60512392  -1.24743262  -2.81189741 
H    3.52589353  -2.32241596  -2.82680964 
H    4.39206560  -0.97009451  -2.13267473 
H    3.90979594  -0.92516060  -3.81473516 
*
