! EnGrad PBEh-3c
%output 
xyzfile=True 
end 
%scf 
maxiter 250 
end
%output
Print[P_Hirshfeld] = 1
end
% maxcore
4000
*xyz 0 1
Pd   0.62736337   0.41455100  -0.30145299 
O    2.05687792   1.29691464   0.52268719 
C    1.62659902   2.61958292   0.31986019 
O    0.55194738   2.87367706  -0.18811829 
C    2.66360920   3.73001884   0.59777402 
H    2.15590605   4.59917191   1.04855847 
H    3.08509646   4.11044863  -0.34873707 
H    3.50359925   3.46120002   1.23969987 
N   -1.40582714  -0.63612117  -1.15363111 
C   -1.21162370  -1.64451268  -2.19267718 
H   -0.78461687  -1.14197329  -3.03442714 
H   -2.21192882  -1.98829369  -2.40523229 
H   -0.53773925  -2.43942996  -1.85806670 
C   -2.14666995   0.52913342  -1.57615040 
H   -2.24491510   1.26624493  -0.77367984 
H   -3.10428437   0.10144676  -1.87286031 
H   -1.62265515   0.89677170  -2.45727675 
C   -1.60910739  -0.93082533   1.39683750 
C   -1.04708654  -2.00925390   2.20232505 
C   -0.75655676  -1.85380828   3.53986573 
C   -1.23354481  -0.77853191   4.18831349 
C   -1.76328131   0.33410911   3.48851121 
C   -1.90393396   0.19498515   2.17115199 
H   -1.02970900  -0.62441501   5.22334858 
H   -2.16726123   1.15031386   4.00062584 
H   -0.84630042  -2.94612415   1.70742720 
H   -0.46482967  -2.71694105   4.14132917 
H   -2.40312952   2.58802604   1.60792714 
C   -2.05754334  -1.29146521   0.02501215 
H   -3.11421778  -1.01572885  -0.00997132 
H   -2.02776822  -2.37528191  -0.07224591 
O    2.03095825  -0.68288506  -1.27413267 
C    2.22023914  -0.48543239  -2.61154401 
O    1.47043351  -0.20956598  -3.42241169 
C    3.67748240  -1.02135016  -2.87490285 
H    3.71565414  -2.10777240  -3.02387060 
H    4.40628037  -0.74727312  -2.13824251 
H    3.91082518  -0.52827167  -3.83102548 
*
