! EnGrad PBEh-3c
%output 
xyzfile=True 
end 
%scf 
maxiter 250 
end
%output
Print[P_Hirshfeld] = 1
end
% maxcore
4000
*xyz 0 1
Pd   0.57967577   0.42773061  -0.38202930 
O    2.08724781   1.39883045   0.54177942 
C    1.66307687   2.63856164   0.31063816 
O    0.56706010   2.82047370  -0.17423575 
C    2.63103034   3.79297519   0.58996882 
H    2.09357365   4.62678027   1.05148146 
H    3.03015600   4.16882881  -0.35759067 
H    3.47336121   3.51991936   1.22362891 
N   -1.32876198  -0.58481398  -1.13123948 
C   -1.22988967  -1.49672805  -2.26850374 
H   -0.86235046  -0.97128967  -3.13434418 
H   -2.23282614  -1.85009285  -2.51110022 
H   -0.57397502  -2.32252712  -2.04720092 
C   -2.14120145   0.55863172  -1.50983307 
H   -2.24051669   1.27235096  -0.70526497 
H   -3.13552398   0.20148800  -1.79512985 
H   -1.68300645   1.03630666  -2.36245529 
C   -1.55243053  -0.93566788   1.36910559 
C   -0.86072891  -1.92336458   2.13515624 
C   -0.66876111  -1.82114956   3.49169467 
C   -1.21419879  -0.77575168   4.15452905 
C   -1.94395167   0.18909095   3.46057748 
C   -2.02414349   0.14349467   2.12094966 
H   -1.03896589  -0.65416042   5.21340236 
H   -2.47637975   0.87143811   4.03161249 
H   -0.51111954  -2.80920241   1.65305053 
H   -0.22495919  -2.61336258   4.05656718 
H   -2.58180468   2.54625508   1.78012956 
C   -1.97780220  -1.32005266   0.00088235 
H   -3.06037582  -1.17679949  -0.03831538 
H   -1.86694335  -2.38890928  -0.13045213 
O    1.93361113  -0.76682706  -1.20601884 
C    2.26320529  -0.57796787  -2.46993997 
O    1.59998610  -0.06575756  -3.29429028 
C    3.62578030  -1.18289220  -2.82988376 
H    3.58006504  -2.26114104  -2.88306520 
H    4.39612353  -0.90648504  -2.13426418 
H    3.91008976  -0.81185957  -3.81938561 
*
