! EnGrad PBEh-3c
%output 
xyzfile=True 
end 
%scf 
maxiter 250 
end
%output
Print[P_Hirshfeld] = 1
end
% maxcore
4000
*xyz 0 1
Pd   0.65905264   0.34664707  -0.20102840 
O    1.96929618   1.24043495   0.49629311 
C    1.57391782   2.54932617   0.30610735 
O    0.59536964   2.93594119  -0.17699258 
C    2.71792271   3.63351547   0.61702251 
H    2.26133208   4.53943235   1.04076098 
H    3.16892231   3.99764437  -0.32489463 
H    3.55004458   3.35630160   1.26465861 
N   -1.44286484  -0.72354953  -1.10164735 
C   -1.18151386  -1.87068704  -2.04533216 
H   -0.65010684  -1.42607875  -2.89369237 
H   -2.18581658  -2.24664185  -2.24989972 
H   -0.49684246  -2.62967013  -1.54626888 
C   -2.14641858   0.44431014  -1.69517643 
H   -2.25221958   1.24558169  -0.91413134 
H   -3.08224825  -0.03966487  -2.00934741 
H   -1.52877375   0.68076111  -2.61246534 
C   -1.69919132  -0.95335500   1.46856469 
C   -1.34969596  -2.12900358   2.28687063 
C   -0.93913211  -1.96238504   3.62070584 
C   -1.23315229  -0.72225681   4.25345783 
C   -1.47184627   0.54191588   3.53155264 
C   -1.70840938   0.32331106   2.19274079 
H   -1.00981378  -0.57444159   5.26757855 
H   -1.65654286   1.64739956   3.97227573 
H   -1.39471886  -3.18479673   1.79653029 
H   -0.85783988  -2.89117891   4.27207707 
H   -2.10517339   2.64147435   1.33635355 
C   -2.19415005  -1.23301829   0.06747415 
H   -3.22021753  -0.75881511   0.03827512 
H   -2.29842633  -2.35289856   0.01608715 
O    2.16813715  -0.48375762  -1.41411875 
C    2.32451798  -0.52847799  -2.58671783 
O    1.10311119  -0.33585113  -3.82371582 
C    3.73408218  -0.72012796  -2.98442166 
H    3.92771152  -1.83257585  -3.26681121 
H    4.42529782  -0.47167512  -2.13619669 
H    3.94423784  -0.07002026  -3.86592268 
*
