! EnGrad PBEh-3c
%output 
xyzfile=True 
end 
%scf 
maxiter 250 
end
%output
Print[P_Hirshfeld] = 1
end
% maxcore
4000
*xyz 1 1
Ir   0.45098034  -0.71580403   0.94686590 
C   -0.06722413  -2.66085610   1.78881331 
C    0.95988783  -2.06961802   2.59115813 
C    1.74678436  -2.30022049   0.43225852 
C    0.42798617  -2.83174327   0.47871536 
C    2.07342934  -1.87119402   1.75056637 
N   -0.94799772   0.04012795  -0.39812355 
C   -2.37400799   0.11848609   0.00083016 
C   -2.86805721   1.53927644   0.18594960 
H   -3.88600641   1.56648835   0.57252141 
H   -2.82874572   2.11353908  -0.74053543 
H   -2.28671425   2.09279562   0.91856505 
C   -3.32758181  -0.62550886  -0.91921283 
H   -2.43217315  -0.35381997   0.97973684 
H   -4.31670307  -0.69592057  -0.47173731 
H   -3.46004271  -0.13665453  -1.88607743 
H   -2.98620123  -1.64458059  -1.10496883 
C   -0.65976549   0.28116626  -1.62182415 
C    0.62300348   0.21494967  -2.25737089 
H   -1.46801209   0.56408372  -2.29379214 
C    1.87759486   0.13853500  -1.72388463 
C    2.92408491   0.11122952  -2.65998705 
S    0.75106877   0.03694993  -3.96791957 
C    2.44136878  -0.04971926  -3.92631259 
H    2.28144086   0.98388906  -0.77461315 
H    3.98235880   0.09643278  -2.44272515 
H    3.02364091  -0.19421767  -4.82351692 
H   -0.93834904  -3.16947304   2.17770836 
H    0.90403595  -1.95158031   3.66235575 
H    3.03615815  -1.48418202   2.04567655 
O    1.57670439   1.59091630   0.88347617 
O   -0.08527847   1.00186442   2.07152601 
C    0.69257636   1.91624969   1.72462389 
C    0.67801513   3.30167584   2.25279277 
H    0.79739653   4.02858557   1.45109690 
H    1.50570944   3.45782100   2.94654819 
H   -0.25179065   3.48077725   2.78505069 
H    2.47140674  -2.50125653  -0.33803185 
H   -0.04097393  -3.41947729  -0.29619571 
*
