! EnGrad PBEh-3c
%output 
xyzfile=True 
end 
%scf 
maxiter 250 
end
%output
Print[P_Hirshfeld] = 1
end
% maxcore
4000
*xyz 1 1
Ir   0.44713566  -0.66013757   0.97175283 
C   -0.07598969  -2.66969526   1.77769443 
C    0.95263753  -2.08690535   2.57409652 
C    1.75476162  -2.33986747   0.44973327 
C    0.48101321  -2.84296393   0.45230609 
C    2.07649147  -1.86105339   1.80541335 
N   -0.94858845   0.02214505  -0.41282512 
C   -2.39847918   0.11670462   0.02445064 
C   -2.85677441   1.55441837   0.21110850 
H   -3.89216740   1.54501032   0.58231722 
H   -2.83376174   2.11297870  -0.71627214 
H   -2.28383455   2.06742850   0.94830141 
C   -3.32399486  -0.63574699  -0.93840133 
H   -2.43244431  -0.37696241   0.97480672 
H   -4.32161813  -0.69162365  -0.47127846 
H   -3.46938349  -0.11825718  -1.88325058 
H   -2.99642648  -1.63833970  -1.12498036 
C   -0.66705881   0.29649606  -1.64496078 
C    0.61462916   0.19064216  -2.26275595 
H   -1.47811007   0.56463957  -2.29223483 
C    1.97405265   0.30376791  -1.59248997 
C    2.90628969   0.05513526  -2.67668192 
S    0.73274956   0.03694678  -3.98740887 
C    2.44203249  -0.04284993  -3.93045050 
H    2.21295488   0.86900976  -0.85530569 
H    3.97281126   0.09358947  -2.42831793 
H    3.01909565  -0.18483611  -4.82367331 
H   -0.95225333  -3.16960491   2.13796549 
H    0.85479873  -1.93783840   3.65737694 
H    3.01538320  -1.47471053   2.09335595 
O    1.57170395   1.59145692   0.87876411 
O   -0.12479316   0.98171560   2.09084254 
C    0.78488136   1.90748897   1.64398934 
C    0.66552352   3.31414061   2.25535134 
H    0.79910828   4.03603555   1.43822158 
H    1.51828991   3.46380875   2.92921272 
H   -0.23981626   3.49304691   2.77949127 
H    2.50327754  -2.47376041  -0.31548869 
H   -0.00487226  -3.41021898  -0.31950737 
*
