! EnGrad PBEh-3c
%output 
xyzfile=True 
end 
%scf 
maxiter 250 
end
%output
Print[P_Hirshfeld] = 1
end
% maxcore
4000
*xyz 1 1
Ir   0.44511651  -0.66924436   0.97214412 
C   -0.07103188  -2.66641591   1.77025675 
C    0.94867569  -2.08573085   2.58511197 
C    1.76511041  -2.33417974   0.45411914 
C    0.47254647  -2.84479693   0.45785147 
C    2.07215451  -1.86413326   1.79400451 
N   -0.95002341   0.02471991  -0.41329099 
C   -2.39449676   0.11734741   0.01780271 
C   -2.86150612   1.54952577   0.21051297 
H   -3.89057514   1.54567965   0.58181307 
H   -2.83344646   2.11391516  -0.71705428 
H   -2.28144612   2.06943878   0.95092406 
C   -3.32771370  -0.63099156  -0.93376813 
H   -2.43270160  -0.37822251   0.97756943 
H   -4.31971203  -0.69201366  -0.47266423 
H   -3.46915771  -0.11807794  -1.88394837 
H   -2.99516561  -1.64137840  -1.12579801 
C   -0.66645023   0.29312183  -1.63955937 
C    0.63220052   0.19765688  -2.25125008 
H   -1.48054564   0.56548218  -2.29424118 
C    1.94176461   0.26654559  -1.65907671 
C    2.91309301   0.06409717  -2.65862463 
S    0.73585566   0.03633163  -3.98129222 
C    2.43616927  -0.04506590  -3.93227528 
H    2.22560723   0.89498350  -0.81998033 
H    3.97123512   0.09248960  -2.43116439 
H    3.01984171  -0.18514693  -4.82440265 
H   -0.95439673  -3.16930460   2.13835241 
H    0.85491689  -1.93791279   3.65411402 
H    3.01950750  -1.47293523   2.09559624 
O    1.60252385   1.57941674   0.84899725 
O   -0.10957561   0.99159752   2.08180524 
C    0.73620034   1.91543498   1.68706700 
C    0.67486133   3.30982279   2.24761966 
H    0.79839985   4.03600130   1.43984326 
H    1.51719359   3.46403916   2.92896245 
H   -0.24395174   3.49241340   2.78129870 
H    2.50278742  -2.47326817  -0.31574503 
H   -0.00469767  -3.40997671  -0.32130094 
*
