! EnGrad PBEh-3c
%output 
xyzfile=True 
end 
%scf 
maxiter 250 
end
%output
Print[P_Hirshfeld] = 1
end
% maxcore
4000
*xyz 1 1
Ir   0.44460595  -0.66783069   0.97644158 
C   -0.07030921  -2.66593284   1.76196474 
C    0.94322850  -2.08808563   2.58940671 
C    1.77505124  -2.33647328   0.46259710 
C    0.47740105  -2.84772205   0.45793237 
C    2.06965647  -1.86425205   1.79603121 
N   -0.95249873   0.02368414  -0.41561023 
C   -2.39508800   0.11664461   0.01641626 
C   -2.86316586   1.54768495   0.21554078 
H   -3.89068208   1.54173086   0.58379431 
H   -2.83414691   2.11481693  -0.71209502 
H   -2.27882363   2.06567491   0.95985051 
C   -3.33033397  -0.62875243  -0.93357076 
H   -2.43307874  -0.38432190   0.97855813 
H   -4.31929669  -0.69153128  -0.47388336 
H   -3.47104277  -0.11381754  -1.88395891 
H   -2.99637414  -1.64229435  -1.13098200 
C   -0.66513962   0.29300245  -1.63950231 
C    0.64427136   0.19941717  -2.24351705 
H   -1.48454080   0.56629919  -2.29598472 
C    1.93339944   0.27718145  -1.67604728 
C    2.91513709   0.06055687  -2.65362694 
S    0.73562812   0.03565595  -3.97840773 
C    2.43224828  -0.04619662  -3.93140173 
H    2.21870775   0.88474060  -0.81719922 
H    3.96883139   0.09075175  -2.43011652 
H    3.01947964  -0.18340522  -4.82516044 
H   -0.95849664  -3.16841938   2.12908387 
H    0.84380170  -1.93494950   3.65131566 
H    3.01789694  -1.46944943   2.10818729 
O    1.60593453   1.57610897   0.84333939 
O   -0.10177485   1.00036087   2.07710988 
C    0.73239085   1.90898316   1.68741212 
C    0.67879331   3.30896492   2.24243304 
H    0.79826601   4.03747579   1.43808434 
H    1.51914807   3.46549811   2.92476768 
H   -0.24378153   3.49442823   2.78104091 
H    2.51000878  -2.46667008  -0.31113098 
H    0.00357803  -3.40787820  -0.32862508 
*
