! EnGrad PBEh-3c
%output 
xyzfile=True 
end 
%scf 
maxiter 250 
end
%output
Print[P_Hirshfeld] = 1
end
% maxcore
4000
*xyz 1 1
Ir   0.45169961  -0.67886658   0.99733824 
C   -0.07844610  -2.66525027   1.71029778 
C    0.89662097  -2.10192813   2.60049952 
C    1.84496248  -2.35263135   0.52152090 
C    0.53152286  -2.86614070   0.44918793 
C    2.06058853  -1.85624347   1.84147760 
N   -0.96778434   0.01790103  -0.42519692 
C   -2.39671177   0.10041467   0.01206393 
C   -2.86476697   1.53135069   0.25983576 
H   -3.89601450   1.50857756   0.60535220 
H   -2.83883532   2.12262155  -0.66210451 
H   -2.26322749   2.02833570   1.03059100 
C   -3.34444403  -0.61633268  -0.94106244 
H   -2.43590018  -0.43213511   0.97512209 
H   -4.32321681  -0.68824798  -0.48156860 
H   -3.48781280  -0.07746507  -1.88167713 
H   -3.01073480  -1.63803231  -1.17471060 
C   -0.65713493   0.29504240  -1.63635139 
C    0.65648419   0.22450334  -2.22481396 
H   -1.49832867   0.56805357  -2.30602942 
C    1.90771459   0.34680583  -1.76459041 
C    2.92324423   0.05111395  -2.65468770 
S    0.73216049   0.02593529  -3.94844862 
C    2.42154479  -0.06554789  -3.92370283 
H    2.16170839   0.80159261  -0.78651263 
H    3.96175041   0.07305823  -2.41686137 
H    3.00849903  -0.16933783  -4.82396725 
H   -0.99101819  -3.15254760   2.04006143 
H    0.74345731  -1.90824285   3.64056921 
H    2.99251974  -1.44253376   2.21600295 
O    1.60784323   1.54395230   0.81946741 
O   -0.06633719   1.03988038   2.05390388 
C    0.75031027   1.90091273   1.66082624 
C    0.69939140   3.29999608   2.20585128 
H    0.79778857   4.04755797   1.41896665 
H    1.53664394   3.47577144   2.88600099 
H   -0.22688515   3.50606545   2.76862037 
H    2.57551341  -2.40621450  -0.26787722 
H    0.08187463  -3.38545271  -0.39122668 
*
