! EnGrad PBEh-3c
%output 
xyzfile=True 
end 
%scf 
maxiter 250 
end
%output
Print[P_Hirshfeld] = 1
end
% maxcore
4000
*xyz 1 1
Ir   0.45561026  -0.68092359   1.00199352 
C   -0.08256270  -2.66634124   1.69253241 
C    0.87815649  -2.10556508   2.60018100 
C    1.86759299  -2.36052503   0.54120418 
C    0.56056175  -2.87230623   0.43978522 
C    2.05810622  -1.85143687   1.87169308 
N   -0.96847775   0.01319566  -0.42524905 
C   -2.39970732   0.09248302   0.01544256 
C   -2.86095723   1.52584549   0.27959908 
H   -3.89877532   1.49401173   0.61629273 
H   -2.84011152   2.12509869  -0.63722610 
H   -2.26003540   2.00925859   1.05789075 
C   -3.34727799  -0.61454806  -0.94899575 
H   -2.43665020  -0.45133718   0.96936639 
H   -4.32727298  -0.68688827  -0.48365263 
H   -3.49527046  -0.06177303  -1.87975218 
H   -3.01859122  -1.63179538  -1.19325144 
C   -0.66507177   0.29960572  -1.63700126 
C    0.63927443   0.23372111  -2.23513140 
H   -1.49729310   0.56682047  -2.30701049 
C    1.92401958   0.38172986  -1.75484866 
C    2.92422935   0.05026298  -2.66206859 
S    0.72669675   0.02010551  -3.94478293 
C    2.41974291  -0.07461233  -3.92655080 
H    2.13477993   0.76055244  -0.78565415 
H    3.96137973   0.06521281  -2.40988245 
H    3.00216437  -0.16455088  -4.82332427 
H   -1.00655281  -3.14480197   1.99978232 
H    0.69832299  -1.89678090   3.63719233 
H    2.97823507  -1.43166025   2.26248648 
O    1.61157473   1.53086565   0.80833872 
O   -0.06761016   1.03930293   2.05310845 
C    0.77036391   1.90794798   1.64157614 
C    0.70467970   3.30259681   2.19405868 
H    0.79804172   4.05090795   1.40936809 
H    1.54480806   3.47940801   2.86835304 
H   -0.21501429   3.50852880   2.75986277 
H    2.60481171  -2.37931155  -0.24682246 
H    0.11916173  -3.37396121  -0.41593930 
*
