! EnGrad PBEh-3c
%output 
xyzfile=True 
end 
%scf 
maxiter 250 
end
%output
Print[P_Hirshfeld] = 1
end
% maxcore
4000
*xyz 1 1
Ir   0.46702611  -0.69354884   1.00462144 
C   -0.09217456  -2.67026252   1.65200203 
C    0.83374292  -2.10876155   2.59767512 
C    1.91751043  -2.36869264   0.58751679 
C    0.62767735  -2.88171727   0.42032131 
C    2.05048395  -1.84262230   1.94043257 
N   -0.96929916   0.00330971  -0.41834452 
C   -2.40249986   0.07275496   0.02189910 
C   -2.85357071   1.50758026   0.32497839 
H   -3.90257359   1.46152031   0.64395717 
H   -2.84060466   2.13064115  -0.57569455 
H   -2.25553134   1.96329289   1.11873037 
C   -3.35537991  -0.60802766  -0.96560946 
H   -2.43845147  -0.49489538   0.95321635 
H   -4.33650645  -0.68444263  -0.48930972 
H   -3.51238912  -0.02530911  -1.87525467 
H   -3.03731182  -1.61487496  -1.23668585 
C   -0.68409484   0.30769318  -1.63690071 
C    0.62954507   0.26706751  -2.25205965 
H   -1.49499636   0.56370044  -2.30921621 
C    1.91682977   0.42173645  -1.76688344 
C    2.92055590   0.06544969  -2.67688564 
S    0.71607754   0.00480043  -3.94185558 
C    2.41239303  -0.09633725  -3.92590190 
H    2.08573174   0.68238900  -0.75735159 
H    3.96615210   0.04542208  -2.39572261 
H    2.98869898  -0.15715200  -4.82711241 
H   -1.04197901  -3.12367386   1.90262966 
H    0.59169441  -1.87150306   3.63041872 
H    2.94203766  -1.40699438   2.37093885 
O    1.61715194   1.50626063   0.78986964 
O   -0.05493541   1.04737476   2.04374046 
C    0.79915263   1.90782828   1.60466925 
C    0.71841048   3.31014705   2.16607096 
H    0.79932492   4.05922117   1.38435784 
H    1.56521841   3.48758243   2.82737727 
H   -0.18472010   3.50970607   2.73633965 
H    2.67359492  -2.31680931  -0.19390126 
H    0.21036379  -3.34647419  -0.47202180 
*
