! EnGrad PBEh-3c
%output 
xyzfile=True 
end 
%scf 
maxiter 250 
end
%output
Print[P_Hirshfeld] = 1
end
% maxcore
4000
*xyz 1 1
Ir   0.45850605  -0.68412617   1.00266013 
C   -0.08500088  -2.66733593   1.68225129 
C    0.86689034  -2.10637591   2.59954535 
C    1.88025528  -2.36259687   0.55295205 
C    0.57758660  -2.87469348   0.43484792 
C    2.05617272  -1.84920092   1.88912986 
N   -0.96868611   0.01068795  -0.42349761 
C   -2.40041569   0.08747871   0.01708036 
C   -2.85908353   1.52121225   0.29111021 
H   -3.89973880   1.48576980   0.62331022 
H   -2.84023661   2.12650461  -0.62161772 
H   -2.25889288   1.99759872   1.07332361 
C   -3.34933316  -0.61289406  -0.95321006 
H   -2.43710712  -0.46238635   0.96526969 
H   -4.32961519  -0.68626790  -0.48508763 
H   -3.49961286  -0.05252342  -1.87861132 
H   -3.02333997  -1.62750327  -1.20426921 
C   -0.66989725   0.30165723  -1.63697575 
C    0.63680643   0.24217991  -2.23942550 
H   -1.49671050   0.56602903  -2.30757000 
C    1.92219578   0.39187812  -1.75790146 
C    2.92329753   0.05411531  -2.66582715 
S    0.72400303   0.01622315  -3.94404036 
C    2.41787851  -0.08012317  -3.92638619 
H    2.12233813   0.74072514  -0.77847479 
H    3.96259031   0.06019260  -2.40629060 
H    2.99874867  -0.16267405  -4.82428519 
H   -1.01553919  -3.13944251   1.97513813 
H    0.67127509  -1.89036881   3.63547410 
H    2.96905307  -1.42540339   2.28999701 
O    1.61298947   1.52462423   0.80365377 
O   -0.06439503   1.04135046   2.05073212 
C    0.77766659   1.90791762   1.63221417 
C    0.70816271   3.30451204   2.18695918 
H    0.79836722   4.05301672   1.40302387 
H    1.54998544   3.48148157   2.85795893 
H   -0.20732972   3.50882743   2.75389578 
H    2.62225958  -2.36345694  -0.23339822 
H    0.14229647  -3.36698873  -0.43016544 
*
