! EnGrad PBEh-3c
%output 
xyzfile=True 
end 
%scf 
maxiter 250 
end
%output
Print[P_Hirshfeld] = 1
end
% maxcore
4000
*xyz -1 1
Pd  -2.14313051  -1.63159192   0.72414798 
Cl  -3.40762076  -3.32239085  -0.24997824 
Cl  -0.61434621  -4.74828672   1.34174698 
Cl  -4.06199374  -0.43585761   0.95264657 
N   -0.96276617  -0.05070046   1.41500565 
C   -1.28804079   0.50182692   2.57050707 
C   -0.79253844   1.73873091   2.98959789 
C    0.08991919   2.39153961   2.16568252 
C   -0.08186629   0.54920328   0.58903103 
C    0.46205168   1.80042012   0.95052087 
H    0.49770443   3.35040851   2.46453682 
H   -1.97405928  -0.05542255   3.19520659 
H   -1.09822976   2.15441413   3.93885644 
C    0.33156324  -0.13248625  -0.60474576 
C    1.37663879   2.44069627   0.05827548 
C    1.72263472   1.84602611  -1.10548739 
C    1.22910934   0.54931960  -1.45719084 
H    1.78109584   3.41068271   0.31996774 
H    2.40877125   2.35594438  -1.77247573 
C   -0.11276921  -1.43516191  -0.92182821 
C    1.66204848  -0.06505339  -2.64082100 
C    0.29918911  -1.97150047  -2.12588197 
C    1.22775193  -1.33062303  -2.95161034 
H    2.34386385   0.44699819  -3.30976587 
H    1.58067154  -1.78991086  -3.86720593 
H   -0.39937239  -3.63354311  -0.20739717 
H   -0.07628454  -2.93368162  -2.46134590 
*
