! EnGrad PBEh-3c
%output 
xyzfile=True 
end 
%scf 
maxiter 250 
end
%output
Print[P_Hirshfeld] = 1
end
% maxcore
4000
*xyz -1 1
Pd  -2.08433562  -1.64972479   0.61839047 
Cl  -3.39993513  -3.29603202  -0.23158322 
Cl  -0.59768702  -4.63997861   1.21705918 
Cl  -4.06855193  -0.40209061   0.96188267 
N   -0.99727847  -0.07492040   1.42754903 
C   -1.28756212   0.50077722   2.57480093 
C   -0.78324673   1.71963782   2.98643524 
C    0.08061738   2.37825120   2.16769605 
C   -0.07329486   0.53489667   0.60939365 
C    0.47038551   1.81486283   0.94532928 
H    0.49897528   3.34670314   2.45653749 
H   -1.97550673  -0.05589187   3.19062325 
H   -1.09639100   2.14537963   3.94158229 
C    0.34078508  -0.13997875  -0.60720123 
C    1.37126433   2.43367702   0.05063793 
C    1.71452713   1.85238943  -1.09634476 
C    1.23933877   0.56387311  -1.47332372 
H    1.77433066   3.41074631   0.32160388 
H    2.40168164   2.35217834  -1.77908157 
C   -0.16772141  -1.48347677  -0.87345417 
C    1.66735268  -0.07290361  -2.64045680 
C    0.31182176  -1.99509183  -2.13133613 
C    1.22089118  -1.30732749  -2.96415939 
H    2.34355869   0.45405576  -3.30565261 
H    1.57939610  -1.79605450  -3.86912852 
H   -0.41887185  -3.65757423  -0.04218263 
H   -0.06516456  -2.93872923  -2.45268972 
*
