! EnGrad PBEh-3c
%output 
xyzfile=True 
end 
%scf 
maxiter 250 
end
%output
Print[P_Hirshfeld] = 1
end
% maxcore
4000
*xyz -1 1
Pd  -2.06736655  -1.64257677   0.58270908 
Cl  -3.40373449  -3.28897087  -0.22571744 
Cl  -0.59483811  -4.57967625   1.16360111 
Cl  -4.05973863  -0.38450759   0.95319526 
N   -0.99094128  -0.07764124   1.41918136 
C   -1.29414874   0.48599017   2.57643047 
C   -0.78109322   1.71544272   2.99589672 
C    0.08647915   2.38147179   2.16430187 
C   -0.07215226   0.52768608   0.61285561 
C    0.46167725   1.80116336   0.94900742 
H    0.49612262   3.34018662   2.45365470 
H   -1.97683895  -0.05830247   3.19161092 
H   -1.09264335   2.13598487   3.93971887 
C    0.33657968  -0.15264627  -0.60206235 
C    1.36838752   2.44484323   0.05862209 
C    1.71687813   1.85007537  -1.11106317 
C    1.23252092   0.55692192  -1.46878252 
H    1.76810392   3.40794693   0.32030566 
H    2.39449404   2.35181658  -1.78055001 
C   -0.16772511  -1.49279862  -0.87766657 
C    1.67413437  -0.05970023  -2.64328737 
C    0.31195797  -1.98842976  -2.10965620 
C    1.21218680  -1.31939390  -2.96709580 
H    2.34222008   0.45743820  -3.30547291 
H    1.57944777  -1.79526029  -3.86960006 
H   -0.42468007  -3.66808380   0.03713377 
H   -0.05682856  -2.95217590  -2.45341077 
*
