! EnGrad PBEh-3c
%output 
xyzfile=True 
end 
%scf 
maxiter 250 
end
%output
Print[P_Hirshfeld] = 1
end
% maxcore
4000
*xyz -1 1
Pd  -2.03133495  -1.56481918   0.48231859 
Cl  -3.42692405  -3.27856247  -0.22212316 
Cl  -0.59793468  -4.44079687   1.09222294 
Cl  -3.99915458  -0.32621009   0.90485146 
N   -0.96500966  -0.08780588   1.40345327 
C   -1.29138593   0.45523629   2.56661787 
C   -0.77127388   1.67937582   2.99856616 
C    0.08472019   2.35638546   2.16652833 
C   -0.06488687   0.50544339   0.60143896 
C    0.45596122   1.76998736   0.95061819 
H    0.48934020   3.32708374   2.44602572 
H   -1.99388867  -0.08358191   3.20018763 
H   -1.08022129   2.10076688   3.94767338 
C    0.33315174  -0.18066356  -0.59147951 
C    1.34755882   2.43475638   0.05319528 
C    1.69322416   1.84095885  -1.11186576 
C    1.21287124   0.52549591  -1.44885758 
H    1.74574539   3.41277646   0.32074894 
H    2.37218179   2.35595670  -1.79716302 
C   -0.15927933  -1.47529177  -0.87683702 
C    1.65306084  -0.06296203  -2.64672144 
C    0.30998063  -2.00918334  -2.08166904 
C    1.20359837  -1.33030412  -2.94467231 
H    2.34116467   0.47631385  -3.31291804 
H    1.57049501  -1.79418308  -3.86554797 
H   -0.42473368  -3.63072360   0.21173567 
H   -0.01360176  -2.98185713  -2.44043716 
*
