! EnGrad PBEh-3c
%output 
xyzfile=True 
end 
%scf 
maxiter 250 
end
%output
Print[P_Hirshfeld] = 1
end
% maxcore
4000
*xyz -1 1
Pd  -2.00730731  -1.52187911   0.41311584 
Cl  -3.42668260  -3.27022334  -0.22881731 
Cl  -0.59982279  -4.44646617   1.12427479 
Cl  -3.97147205  -0.30350669   0.89755698 
N   -0.96379604  -0.09607889   1.39949276 
C   -1.29401229   0.44013722   2.56615919 
C   -0.76864613   1.66132059   2.99942885 
C    0.08410977   2.34187265   2.16650116 
C   -0.05762291   0.50299234   0.60274556 
C    0.46011375   1.76545128   0.94992582 
H    0.48498607   3.31834504   2.44018337 
H   -1.99975481  -0.09158324   3.19434316 
H   -1.07466785   2.08246940   3.94957815 
C    0.34021238  -0.17899850  -0.58965382 
C    1.34057689   2.43103111   0.04994547 
C    1.68325297   1.83489899  -1.11080345 
C    1.21758686   0.52242089  -1.45058507 
H    1.73295915   3.41008368   0.32029590 
H    2.35721663   2.35122481  -1.80113538 
C   -0.17849938  -1.47758101  -0.86897477 
C    1.64361407  -0.06521642  -2.64479510 
C    0.31074767  -2.01801551  -2.07331596 
C    1.20019510  -1.33600613  -2.93580985 
H    2.33289379   0.47841443  -3.30760774 
H    1.55918099  -1.79513339  -3.85623547 
H   -0.41536033  -3.55374895   0.22944992 
H    0.00082959  -2.99550149  -2.42856728 
*
