! EnGrad PBEh-3c
%output 
xyzfile=True 
end 
%scf 
maxiter 250 
end
%output
Print[P_Hirshfeld] = 1
end
% maxcore
4000
*xyz -1 1
Pd  -1.99588170  -1.48480691   0.34335544 
Cl  -3.42701372  -3.25500627  -0.24108783 
Cl  -0.59366299  -4.43058209   1.15149587 
Cl  -3.93412845  -0.27318909   0.88274161 
N   -0.96125601  -0.10379722   1.39651098 
C   -1.29274971   0.42343593   2.56279305 
C   -0.76560862   1.63866178   2.99910311 
C    0.08359705   2.32487619   2.16933195 
C   -0.04958994   0.49994079   0.60883612 
C    0.46596515   1.76217751   0.95054701 
H    0.47766720   3.30339157   2.43357667 
H   -2.00646632  -0.10510097   3.18463003 
H   -1.06756956   2.05806333   3.95264520 
C    0.34842482  -0.18296358  -0.58915845 
C    1.33309137   2.42650986   0.04637056 
C    1.67566253   1.83207751  -1.11269420 
C    1.22208285   0.52181369  -1.45141060 
H    1.71526518   3.40469547   0.31778902 
H    2.33393351   2.34239202  -1.80378606 
C   -0.18976349  -1.48263350  -0.86352253 
C    1.63548917  -0.07253290  -2.64754982 
C    0.31235944  -2.03091697  -2.06401334 
C    1.19841800  -1.33799732  -2.92440569 
H    2.31588021   0.47643380  -3.29810929 
H    1.54536945  -1.79929985  -3.84631312 
H   -0.41053347  -3.45506015   0.26071477 
H    0.01870221  -3.01358713  -2.41164419 
*
