! EnGrad PBEh-3c
%output 
xyzfile=True 
end 
%scf 
maxiter 250 
end
%output
Print[P_Hirshfeld] = 1
end
% maxcore
4000
*xyz -1 1
Pd  -2.38047915  -1.72190237   0.83371850 
Cl  -4.04510922  -3.03722174   0.10504207 
Cl  -1.30570802  -3.65553709   1.83749721 
Cl  -3.46606450   0.17218410  -0.07364212 
N   -0.90806830  -0.29274144   1.44429567 
C   -1.17247694   0.21215390   2.62894393 
C   -0.68206609   1.44272172   3.06863801 
C    0.07741662   2.18150477   2.20174016 
C   -0.05711727   0.36013819   0.61423712 
C    0.40756477   1.65261981   0.94822376 
H    0.43267505   3.16676068   2.47588088 
H   -1.82891530  -0.36857542   3.25815122 
H   -0.94107056   1.80358406   4.05147999 
C    0.38009858  -0.30880334  -0.59196355 
C    1.18051706   2.39671244   0.01148065 
C    1.50037015   1.86339878  -1.18987286 
C    1.14175688   0.51101391  -1.51710158 
H    1.49165341   3.39969194   0.26871643 
H    2.06775299   2.44295762  -1.90781671 
C    0.23844361  -1.69502096  -0.90072507 
C    1.60258230  -0.05173707  -2.72506058 
C    0.64767195  -2.17020727  -2.05690974 
C    1.35347959  -1.35511687  -3.01006666 
H    2.16120017   0.56313915  -3.41749389 
H    1.71666017  -1.79986924  -3.93134464 
H   -0.13900706  -2.50700219  -0.12816915 
H    0.52466992  -3.20455666  -2.30018894 
*
