! EnGrad PBEh-3c
%output 
xyzfile=True 
end 
%scf 
maxiter 250 
end
%output
Print[P_Hirshfeld] = 1
end
% maxcore
4000
*xyz -1 1
Pd  -2.36649463  -1.74169149   0.83826551 
Cl  -4.03513387  -3.07049968   0.08777930 
Cl  -1.29863393  -3.61624241   1.78986801 
Cl  -3.46162932   0.13248178  -0.02266619 
N   -0.90656802  -0.30108796   1.45101761 
C   -1.18219171   0.22604846   2.63190810 
C   -0.68946500   1.45269435   3.06447348 
C    0.07824210   2.18713570   2.19517173 
C   -0.06216073   0.34159743   0.62092724 
C    0.40153150   1.64207489   0.94679761 
H    0.43657182   3.17532883   2.47138698 
H   -1.84188056  -0.35325706   3.26192266 
H   -0.95001886   1.82019420   4.04721674 
C    0.40823528  -0.29343391  -0.58881414 
C    1.18904919   2.39127137   0.00801685 
C    1.49791735   1.84414807  -1.18054559 
C    1.13665738   0.49573023  -1.50840893 
H    1.50503624   3.39917261   0.27300802 
H    2.07735755   2.42553571  -1.89990891 
C    0.24166532  -1.66945790  -0.87846919 
C    1.59106398  -0.05111269  -2.70493995 
C    0.66636242  -2.16876394  -2.09587002 
C    1.33271994  -1.36784659  -3.01676713 
H    2.17188851   0.56345250  -3.40708602 
H    1.70202711  -1.79521765  -3.92672920 
H   -0.14443651  -2.44456410  -0.14730501 
H    0.49807659  -3.22453736  -2.31633116 
*
