! EnGrad PBEh-3c
%output 
xyzfile=True 
end 
%scf 
maxiter 250 
end
%output
Print[P_Hirshfeld] = 1
end
% maxcore
4000
*xyz -1 1
Pd  -2.36198507  -1.75195660   0.83915003 
Cl  -4.02420854  -3.09242636   0.07645667 
Cl  -1.28809626  -3.60072168   1.76144851 
Cl  -3.46289127   0.10892710   0.01152930 
N   -0.90744906  -0.30496154   1.45906190 
C   -1.18891520   0.23065033   2.63038700 
C   -0.69354223   1.46309002   3.06094954 
C    0.07626737   2.18886236   2.19259804 
C   -0.06033760   0.34003571   0.62799093 
C    0.40211822   1.64251482   0.94615190 
H    0.43893826   3.17918058   2.46662106 
H   -1.85064311  -0.34123918   3.26382217 
H   -0.95638857   1.83188010   4.04318439 
C    0.41331859  -0.30308228  -0.58407226 
C    1.18971279   2.38499061   0.01425237 
C    1.50482854   1.84113606  -1.18187571 
C    1.14022721   0.50105297  -1.50139491 
H    1.51349096   3.39437412   0.27420666 
H    2.08225201   2.41072116  -1.89233515 
C    0.23892292  -1.68341443  -0.86207528 
C    1.59259997  -0.05852000  -2.71450785 
C    0.65990400  -2.17944996  -2.09703743 
C    1.32605717  -1.35657422  -3.01641778 
H    2.17260398   0.55817423  -3.39171629 
H    1.69498100  -1.79505052  -3.93347444 
H   -0.13902284  -2.38831608  -0.17708635 
H    0.48133433  -3.22153573  -2.32398635 
*
