! EnGrad PBEh-3c
%output 
xyzfile=True 
end 
%scf 
maxiter 250 
end
%output
Print[P_Hirshfeld] = 1
end
% maxcore
4000
*xyz -1 1
C   -2.17308820  -0.02965855   0.65560540 
C   -1.84244253   0.98752609   1.55589137 
C   -3.52793280  -0.35085548   0.55061911 
C   -4.53078684   0.55078127   0.87800038 
C   -4.18803902   1.66276580   1.62252931 
C   -2.84960657   1.92414171   1.82795354 
H   -2.58112066  -1.78356890  -2.05903163 
H   -3.86221973  -1.37268151   0.42221511 
H   -2.62608309   2.93174077   2.16977749 
H   -5.57432013   0.32068829   0.69999523 
H   -4.96244616   2.34303018   1.95247098 
C   -0.43638406   1.41742554   1.91492474 
C    0.74145831   0.46010396   1.96858897 
H   -0.49642543   1.90365687   2.90619898 
H   -0.20445403   2.27431682   1.26984140 
C    1.74262033   0.65277973   0.87072098 
H    0.35216011  -0.55974513   1.96938591 
H    1.26325290   0.54595601   2.93140124 
C    1.53224647   0.08968551  -0.39341832 
C    2.55576438   0.28559828  -1.32216060 
C    3.60685274   1.17777620  -1.13450087 
C    2.92988953   1.33976136   1.13772717 
C    3.71933886   1.80466820   0.09383966 
H    2.61376998  -0.31405920  -2.22229267 
H    4.32410818   1.37005824  -1.92423136 
H    3.10530553   1.72914222   2.13595090 
H    4.42142144   2.61993015   0.21599192 
Pd   0.13524120  -1.26243672  -0.64483212 
Br  -1.51584510  -3.72113935  -0.56533506 
P    1.42754688  -2.98655475  -0.04057684 
H    1.17125075  -3.61560099   1.19751042 
C    0.29854533  -1.44243002  -3.82258363 
O    1.40381796  -1.78809610  -4.16182795 
O   -0.56240439  -2.23947532  -3.28863487 
O   -0.25978948  -0.28278511  -4.19784209 
H    2.80525697  -2.79693008   0.21799518 
H    1.61856456  -4.13600127  -0.83144083 
H    0.42496500   0.29048508  -4.55641188 
*
