! EnGrad PBEh-3c
%output 
xyzfile=True 
end 
%scf 
maxiter 250 
end
%output
Print[P_Hirshfeld] = 1
end
% maxcore
4000
*xyz -1 1
C   -2.13215688  -0.14457203   0.74395174 
C   -1.84987651   1.05472570   1.42040836 
C   -3.51415323  -0.47071492   0.69137261 
C   -4.52841789   0.41033342   1.10681267 
C   -4.19942620   1.64019985   1.66444624 
C   -2.85662601   1.94551882   1.82155716 
H   -1.89479595  -2.05121774  -1.61111714 
H   -3.83694278  -1.40378828   0.23024093 
H   -2.57685167   2.84043712   2.37196371 
H   -5.57666007   0.16959366   0.94047708 
H   -4.95872160   2.36474972   1.95524939 
C   -0.43409998   1.51359950   1.72350468 
C    0.67729090   0.45795512   1.91957656 
H   -0.50704360   2.08328307   2.64728818 
H   -0.09765285   2.23565762   0.97158486 
C    1.73203549   0.57980471   0.86060469 
H    0.27208781  -0.55496056   1.93932564 
H    1.14316917   0.60992722   2.89368751 
C    1.59415997  -0.07439428  -0.36357117 
C    2.57022618   0.15402540  -1.35088963 
C    3.58728222   1.09526314  -1.13207132 
C    2.81378279   1.43398054   1.08987044 
C    3.71154932   1.75374808   0.08436036 
H    2.55418836  -0.34175117  -2.31556513 
H    4.30854874   1.33220257  -1.90906848 
H    2.96774754   1.84351197   2.08471585 
H    4.54133093   2.43450325   0.29021622 
Pd  -0.01372843  -1.29901532  -0.48536570 
Br  -1.85817911  -3.21304731  -0.91680837 
P    1.47941449  -2.93561292  -0.02064180 
H    1.03623629  -3.53935067   1.16858388 
C    0.24987798  -1.39689672  -3.82644299 
O    1.41709682  -1.70235138  -4.13515236 
O   -0.58548919  -2.03312816  -3.16364569 
O   -0.21227646  -0.16151569  -4.27273848 
H    2.81558649  -2.75287296   0.34710164 
H    1.58902408  -4.11390974  -0.76500761 
H    0.55768248   0.23526583  -4.68395845 
*
