! EnGrad PBEh-3c
%output 
xyzfile=True 
end 
%scf 
maxiter 250 
end
%output
Print[P_Hirshfeld] = 1
end
% maxcore
4000
*xyz -1 1
C   -2.14567118  -0.05491136   0.69093227 
C   -1.83388999   1.00728201   1.48859150 
C   -3.54422974  -0.36218779   0.55524439 
C   -4.53566764   0.52901215   0.92003288 
C   -4.19321571   1.67775402   1.59472276 
C   -2.86690484   1.93073171   1.86205241 
H   -2.52912673  -1.79212157  -2.03827198 
H   -3.85716960  -1.37890236   0.39278282 
H   -2.61525172   2.92409127   2.18645600 
H   -5.57972084   0.31107808   0.70994409 
H   -4.96177566   2.35026064   1.95448056 
C   -0.44552590   1.46548321   1.92859571 
C    0.74213311   0.43658973   1.97673733 
H   -0.49840388   1.90518286   2.88865449 
H   -0.19880552   2.26303728   1.25009767 
C    1.74965024   0.63259203   0.88130274 
H    0.35184046  -0.56181574   1.96360537 
H    1.25680406   0.55358748   2.92513322 
C    1.56907430   0.07995216  -0.38661728 
C    2.56264878   0.26540903  -1.34711922 
C    3.59375958   1.18495745  -1.12653488 
C    2.90092142   1.38317245   1.13007611 
C    3.73738344   1.78888330   0.09061425 
H    2.60612710  -0.31541524  -2.22949490 
H    4.32385473   1.36887663  -1.92544901 
H    3.10030757   1.72943604   2.13535294 
H    4.43347232   2.60979403   0.22593883 
Pd   0.06781929  -1.27191437  -0.64431241 
Br  -1.52835689  -3.69049339  -0.58267638 
P    1.46095841  -2.99685599  -0.03551306 
H    1.15818867  -3.60940121   1.19359828 
C    0.20953883  -1.52207429  -3.83059218 
O    1.46480298  -1.76935360  -4.16327449 
O   -0.55208643  -2.19630627  -3.27011412 
O   -0.25139995  -0.23967948  -4.19919450 
H    2.80460262  -2.79196691   0.22512822 
H    1.61106296  -4.13240340  -0.82753492 
H    0.43138939   0.28908173  -4.56366964 
*
