! EnGrad PBEh-3c
%output 
xyzfile=True 
end 
%scf 
maxiter 250 
end
%output
Print[P_Hirshfeld] = 1
end
% maxcore
4000
*xyz -1 1
C   -2.12837498  -0.14617688   0.73705628 
C   -1.84730182   1.05716099   1.41550322 
C   -3.50166175  -0.46546322   0.68460386 
C   -4.52046968   0.39964562   1.12026420 
C   -4.19340745   1.63035155   1.67231170 
C   -2.85209758   1.93001410   1.83531628 
H   -1.84598125  -2.04029552  -1.60159058 
H   -3.83573985  -1.39831780   0.23046247 
H   -2.57747615   2.83007846   2.37960251 
H   -5.56942570   0.14868988   0.97491951 
H   -4.95297261   2.35191679   1.95577527 
C   -0.43199856   1.50967262   1.69871581 
C    0.66632252   0.46723524   1.91345772 
H   -0.49929272   2.11272837   2.61152118 
H   -0.09606351   2.22373261   0.93854783 
C    1.72977177   0.57678049   0.86506439 
H    0.25762393  -0.54415576   1.94025814 
H    1.12842345   0.61744114   2.88980602 
C    1.59350472  -0.06971892  -0.36031705 
C    2.56788055   0.15171091  -1.34662883 
C    3.58304906   1.08494662  -1.13343038 
C    2.81179756   1.42479752   1.08657305 
C    3.70961561   1.73413332   0.08557099 
H    2.54502090  -0.34705204  -2.31385744 
H    4.29893504   1.31615477  -1.90483586 
H    2.94136738   1.86045098   2.07008660 
H    4.53877216   2.40823488   0.28864307 
Pd   0.01164690  -1.28367103  -0.46215762 
Br  -1.90983827  -3.22220868  -0.91094368 
P    1.47381728  -2.93175684  -0.01659049 
H    1.02686479  -3.53170710   1.16834417 
C    0.26533428  -1.38266298  -3.84123461 
O    1.40960491  -1.68988644  -4.12537108 
O   -0.58277944  -2.00489894  -3.14647186 
O   -0.20120328  -0.15443088  -4.27642804 
H    2.80636249  -2.74931887   0.35874084 
H    1.59176755  -4.10891930  -0.75918796 
H    0.57142421   0.23253950  -4.70405747 
*
