! EnGrad PBEh-3c
%output 
xyzfile=True 
end 
%scf 
maxiter 250 
end
%output
Print[P_Hirshfeld] = 1
end
% maxcore
4000
*xyz -1 1
C   -2.14426855  -0.12025618   0.72677010 
C   -1.84215474   1.07744975   1.43000676 
C   -3.52245164  -0.39195221   0.59553558 
C   -4.54669679   0.48330344   0.99057827 
C   -4.20479603   1.69719958   1.57907122 
C   -2.86783658   1.92084401   1.87025503 
H   -2.38252161  -1.82234498  -1.95490744 
H   -3.85046570  -1.39737826   0.32422661 
H   -2.59389296   2.91256151   2.24105376 
H   -5.59031733   0.28223651   0.75034515 
H   -4.96680828   2.36908741   1.95684620 
C   -0.43390178   1.46786657   1.87520581 
C    0.71954095   0.44628978   1.96769758 
H   -0.51245902   1.94852290   2.88163848 
H   -0.16812373   2.26642299   1.18064286 
C    1.76143269   0.60636584   0.88719034 
H    0.33480229  -0.58420038   1.95329097 
H    1.24227684   0.56904203   2.92654449 
C    1.59010110   0.01231504  -0.37564315 
C    2.57752344   0.24661164  -1.35056711 
C    3.59468404   1.17591688  -1.14628979 
C    2.85585650   1.45006075   1.11415080 
C    3.74688684   1.77567037   0.10317022 
H    2.58886858  -0.33480967  -2.27946333 
H    4.31736379   1.36613777  -1.91914444 
H    3.08187008   1.74578741   2.13557469 
H    4.46910449   2.57504222   0.24826529 
Pd  -0.02440283  -1.28873076  -0.61818888 
Br  -1.58044891  -3.59494509  -0.64683511 
P    1.47429216  -2.97962100  -0.03346656 
H    1.12469281  -3.59596470   1.18919959 
C    0.27282394  -1.48275506  -3.90127542 
O    1.42102725  -1.73091881  -4.14181609 
O   -0.60742548  -2.19418372  -3.20407860 
O   -0.24839171  -0.24398047  -4.19467169 
H    2.83531392  -2.77816036   0.25552606 
H    1.59964058  -4.13837685  -0.82160416 
H    0.47553829   0.28517612  -4.59364568 
*
