! EnGrad PBEh-3c
%output 
xyzfile=True 
end 
%scf 
maxiter 250 
end
%output
Print[P_Hirshfeld] = 1
end
% maxcore
4000
*xyz -1 1
C   -2.14197726  -0.13837212   0.74474028 
C   -1.84922166   1.07702999   1.41476549 
C   -3.51450466  -0.43514060   0.64804993 
C   -4.54374269   0.45399504   1.04000172 
C   -4.21082101   1.68228345   1.60175273 
C   -2.86366839   1.93939334   1.84109366 
H   -2.20031813  -1.87953375  -1.84422871 
H   -3.84345422  -1.40743151   0.26744318 
H   -2.58101057   2.89111255   2.30048870 
H   -5.59342173   0.24536867   0.80827866 
H   -4.97160384   2.38333835   1.95692827 
C   -0.43348328   1.48548861   1.81841912 
C    0.70616553   0.44458290   1.95090867 
H   -0.52060387   1.99336012   2.82471615 
H   -0.13121662   2.26802092   1.10474150 
C    1.75406551   0.59403661   0.87314036 
H    0.31502780  -0.58676271   1.94607204 
H    1.21288159   0.58423551   2.92114968 
C    1.58827175  -0.05127175  -0.36609523 
C    2.57576183   0.21035376  -1.35280440 
C    3.59742682   1.15214723  -1.14111723 
C    2.83152308   1.46993457   1.10379242 
C    3.73682829   1.77743095   0.10046935 
H    2.57501445  -0.34157833  -2.31174384 
H    4.32161168   1.36401955  -1.92229574 
H    3.05218225   1.77738736   2.12930280 
H    4.50676844   2.52952477   0.26980484 
Pd  -0.06125181  -1.30427039  -0.57330183 
Br  -1.65981603  -3.46805566  -0.73685486 
P    1.46861841  -2.95167930  -0.03464237 
H    1.08982900  -3.57884381   1.18335338 
C    0.25717703  -1.42723430  -3.85802570 
O    1.40700028  -1.72220074  -4.14614321 
O   -0.60640699  -2.15291131  -3.19707937 
O   -0.22593681  -0.23456514  -4.22580349 
H    2.85560045  -2.76644540   0.29152729 
H    1.59242362  -4.14010640  -0.80743152 
H    0.50134938   0.26476390  -4.61849361 
*
