! EnGrad PBEh-3c
%output 
xyzfile=True 
end 
%scf 
maxiter 250 
end
%output
Print[P_Hirshfeld] = 1
end
% maxcore
4000
*xyz -1 1
C   -2.13693334  -0.13157190   0.74650701 
C   -1.84777013   1.05827038   1.41717246 
C   -3.52292592  -0.44765721   0.66348792 
C   -4.53898985   0.44512244   1.05088750 
C   -4.20894536   1.67187927   1.61897868 
C   -2.86487281   1.95017783   1.82892262 
H   -2.13070566  -1.91554296  -1.79494247 
H   -3.84130607  -1.40786219   0.25647425 
H   -2.57970343   2.88074812   2.31826567 
H   -5.59049292   0.23074761   0.83373148 
H   -4.97028973   2.38264415   1.95602762 
C   -0.43874892   1.50427870   1.80659024 
C    0.70556964   0.43840828   1.94544427 
H   -0.51866230   2.00576607   2.78209623 
H   -0.12144721   2.26266431   1.07894606 
C    1.74643753   0.59190486   0.86662048 
H    0.30832576  -0.57874836   1.94443609 
H    1.19730928   0.58922834   2.91421912 
C    1.58985516  -0.05939422  -0.36556925 
C    2.57095367   0.19177647  -1.35675327 
C    3.59493424   1.13987073  -1.13268264 
C    2.82823468   1.46119094   1.10164484 
C    3.73018126   1.77829959   0.09417106 
H    2.57193224  -0.33830177  -2.31081706 
H    4.32369844   1.36121462  -1.92351128 
H    3.03725166   1.79136574   2.12234844 
H    4.51752170   2.51151135   0.27586298 
Pd  -0.05656400  -1.30819682  -0.55578802 
Br  -1.69716444  -3.41055357  -0.77777249 
P    1.47173593  -2.94711434  -0.03301815 
H    1.07827159  -3.57083698   1.17979857 
C    0.23837781  -1.43745999  -3.82161495 
O    1.41188960  -1.72169347  -4.15017740 
O   -0.58934885  -2.11908496  -3.20571159 
O   -0.22468009  -0.21016841  -4.24352997 
H    2.84864200  -2.76381525   0.30308500 
H    1.59082316  -4.13481426  -0.79810652 
H    0.50948548   0.25672539  -4.62886654 
*
