! EnGrad PBEh-3c
%output 
xyzfile=True 
end 
%scf 
maxiter 250 
end
%output
Print[P_Hirshfeld] = 1
end
% maxcore
4000
*xyz -1 1
C   -2.13293457  -0.13917190   0.75302133 
C   -1.84978665   1.05453400   1.41219644 
C   -3.52552323  -0.46509215   0.68820242 
C   -4.53610846   0.42617713   1.07804261 
C   -4.20809218   1.66225723   1.63740192 
C   -2.86457751   1.95675129   1.81705960 
H   -2.01888904  -1.97420528  -1.71068930 
H   -3.83861691  -1.41197880   0.23310409 
H   -2.57480196   2.86578711   2.34909176 
H   -5.58861140   0.20686918   0.87446168 
H   -4.96897031   2.38338554   1.95599023 
C   -0.44016011   1.52081483   1.77779234 
C    0.69774923   0.43786016   1.93573269 
H   -0.51801050   2.03229644   2.72788388 
H   -0.10554044   2.25562682   1.03260135 
C    1.74012913   0.58474293   0.86090264 
H    0.29575727  -0.57318719   1.94046304 
H    1.17533444   0.59824729   2.90605086 
C    1.59482755  -0.07970728  -0.36396078 
C    2.56970096   0.16850020  -1.35944900 
C    3.59279227   1.12235668  -1.12914596 
C    2.81688551   1.46082686   1.09585544 
C    3.72312747   1.77483649   0.08965434 
H    2.56514413  -0.33895107  -2.31887923 
H    4.32312947   1.35535461  -1.92154226 
H    3.01394399   1.81178015   2.11233847 
H    4.53588289   2.48225170   0.28657470 
Pd  -0.06242931  -1.31403030  -0.52964168 
Br  -1.75655067  -3.31425672  -0.84566633 
P    1.47773549  -2.93893812  -0.02977739 
H    1.05774767  -3.55824474   1.17496020 
C    0.23524350  -1.42935065  -3.80434986 
O    1.40885800  -1.71343399  -4.14824987 
O   -0.58377991  -2.08159701  -3.19729840 
O   -0.22232853  -0.18854299  -4.26009027 
H    2.84345138  -2.75823762   0.32339687 
H    1.58735098  -4.12890211  -0.78490331 
H    0.53061691   0.24712862  -4.64954284 
*
