! EnGrad PBEh-3c
%output 
xyzfile=True 
end 
%scf 
maxiter 250 
end
%output
Print[P_Hirshfeld] = 1
end
% maxcore
4000
*xyz 0 1
Lu   0.45508134   0.46406908  -0.30013224 
C    0.49269632   1.00794988   2.54142302 
C    1.41771428  -0.02359726   2.22328311 
C    2.31344167   0.46163557   1.24473131 
C    1.97967911   1.82328517   1.03846208 
C    0.72547858   2.07462395   1.64872947 
H    2.52899653   2.50875429   0.41003840 
H    0.16839295   2.99981247   1.64711095 
H   -0.30425211   0.96552994   3.27153194 
H    1.44319375  -1.00790892   2.67296803 
H    3.20308078  -0.04345374   0.90155218 
C    1.02692305  -0.11824866  -2.64095949 
C   -0.28603557  -0.63876758  -2.57670015 
C    1.06657559  -1.95435465  -1.30401357 
C    1.84262163  -0.86489262  -1.75830453 
H    1.32027773   0.76344739  -3.19105569 
C   -0.16264969  -1.93036819  -2.02229366 
H   -1.14807584  -0.30101739  -3.13170985 
H    2.89658801  -0.72833117  -1.56922979 
H    1.40325775  -2.76278150  -0.66711416 
H   -0.97152964  -2.64811481  -1.95251990 
C   -2.87538143  -1.63759216   1.49780866 
H   -2.56956021  -1.45704303   2.51568754 
H   -2.97836880  -2.67091659   1.16497435 
H   -3.19018587  -0.79219833   0.86101233 
C   -1.93828847   1.72046835  -0.69729614 
H   -1.23846217  -1.12037748   0.77028183 
H   -1.47463636   2.51308576  -1.29559624 
H   -2.54390854   2.23740327   0.04890305 
H   -2.60267436   1.15990465  -1.35157461 
*
