! EnGrad PBEh-3c
%output 
xyzfile=True 
end 
%scf 
maxiter 250 
end
%output
Print[P_Hirshfeld] = 1
end
% maxcore
4000
*xyz 0 1
Lu   0.12861315   0.31120771  -0.17477483 
C    0.39774094   0.91252242   2.40673723 
C    1.36688119  -0.09200916   2.13234862 
C    2.29199437   0.44270630   1.22125401 
C    1.90267525   1.75444936   0.92498663 
C    0.71866441   2.04787827   1.64123251 
H    2.46313452   2.45638543   0.31025043 
H    0.24210787   3.01620651   1.70264205 
H   -0.40301242   0.82704348   3.12118663 
H    1.43935315  -1.04882431   2.61762875 
H    3.21844817  -0.03728639   0.91367004 
C    0.98928665  -0.05769898  -2.52082452 
C   -0.29554130  -0.63247310  -2.54792912 
C    1.05009885  -1.91605603  -1.22105442 
C    1.81323654  -0.84360352  -1.70551156 
H    1.31390386   0.81504767  -3.08900008 
C   -0.25037910  -1.79669450  -1.76541999 
H   -1.11828513  -0.30687817  -3.17328620 
H    2.88580949  -0.71822972  -1.57017321 
H    1.43395192  -2.76256313  -0.66714149 
H   -1.06095054  -2.50497258  -1.61310338 
C   -2.58332245  -1.53261966   1.34175950 
H   -2.33687125  -1.38578813   2.37917101 
H   -2.33560638  -2.52705901   1.00133701 
H   -3.63288418  -1.15813669   1.07602136 
C   -1.73608605   1.72727926  -0.77873216 
H   -1.84516174  -0.95145110   0.79171713 
H   -1.32218120   2.57413895  -1.36889452 
H   -2.32154221   2.21223845   0.02471013 
H   -2.46851936   1.25631990  -1.46053241 
*
