! EnGrad PBEh-3c
%output 
xyzfile=True 
end 
%scf 
maxiter 250 
end
%output
Print[P_Hirshfeld] = 1
end
% maxcore
4000
*xyz 0 1
Lu   0.11677495   0.40574446  -0.23198296 
C    0.42523752   0.94967037   2.46138314 
C    1.40157766  -0.05879294   2.20294186 
C    2.36391427   0.50120856   1.33843872 
C    1.94799342   1.79781138   0.95777862 
C    0.81809749   2.11231445   1.74920059 
H    2.52334261   2.51175180   0.37544451 
H    0.18764162   2.99175632   1.64976753 
H   -0.29127493   0.92888966   3.24103806 
H    1.43082380  -1.01615020   2.65957123 
H    3.20993052  -0.04642948   0.91521728 
C    1.01738495  -0.05930017  -2.56876233 
C   -0.22755715  -0.72071049  -2.70509758 
C    1.08894033  -1.99456591  -1.33928419 
C    1.85010885  -0.90847101  -1.80580274 
H    1.32155876   0.79584419  -3.17093573 
C   -0.25177467  -1.83751530  -1.81156786 
H   -1.13379808  -0.29720304  -3.13355208 
H    2.90379402  -0.73677853  -1.57106954 
H    1.40233150  -2.76348732  -0.66602868 
H   -0.96782233  -2.62301608  -1.87490177 
C   -2.37830599  -1.56243827   1.31406450 
H   -2.54635129  -1.46462135   2.47971531 
H   -2.84194284  -2.62836306   1.15194808 
H   -3.34580592  -0.94580321   0.95326145 
C   -1.81175478   1.69888460  -0.70378933 
H   -1.69894419  -1.04468997   0.84062078 
H   -1.45252581   2.54893067  -1.33227404 
H   -2.50633027   2.24857396   0.01850345 
H   -2.57736997   1.21504103  -1.39120232 
*
