! EnGrad PBEh-3c
%output 
xyzfile=True 
end 
%scf 
maxiter 250 
end
%output
Print[P_Hirshfeld] = 1
end
% maxcore
4000
*xyz 0 1
Lu   0.09995332   0.40042000  -0.22433238 
C    0.43219691   0.95046501   2.45087815 
C    1.40138227  -0.04884298   2.19494061 
C    2.36421527   0.49140887   1.33278935 
C    1.94892619   1.79693954   0.95871402 
C    0.80924886   2.10807560   1.74761853 
H    2.52092610   2.50888395   0.37231086 
H    0.19288974   2.99123123   1.65323616 
H   -0.29880849   0.92335278   3.23968377 
H    1.43037489  -1.02499049   2.66051737 
H    3.20768712  -0.04383989   0.91923754 
C    1.01479670  -0.06112431  -2.57377249 
C   -0.23510624  -0.71779114  -2.69185841 
C    1.08540670  -1.98416646  -1.33767063 
C    1.85457288  -0.91127295  -1.79754317 
H    1.32147714   0.79633413  -3.16515198 
C   -0.24286703  -1.82597131  -1.81419002 
H   -1.12950561  -0.29933141  -3.13655635 
H    2.89953517  -0.73836800  -1.57236862 
H    1.40538530  -2.76791940  -0.66345726 
H   -0.97612438  -2.62132243  -1.85982080 
C   -2.38997746  -1.53375443   1.30319686 
H   -2.52685734  -1.46414635   2.45058200 
H   -2.79772668  -2.60785902   1.14480666 
H   -3.34637522  -0.97865799   0.97429242 
C   -1.82128139   1.70400048  -0.70833634 
H   -1.74716562  -1.05741522   0.85785819 
H   -1.44706545   2.54892590  -1.33352710 
H   -2.49008098   2.24216757   0.00859603 
H   -2.56387752   1.22493023  -1.38928854 
*
