! EnGrad PBEh-3c
%output 
xyzfile=True 
end 
%scf 
maxiter 250 
end
%output
Print[P_Hirshfeld] = 1
end
% maxcore
4000
*xyz 0 1
Lu   0.09474023   0.39520842  -0.21658491 
C    0.43515375   0.95569770   2.44927030 
C    1.40231177  -0.05083587   2.18968281 
C    2.35671102   0.48541938   1.31542143 
C    1.95077561   1.79698786   0.96555481 
C    0.79649385   2.10150330   1.73013147 
H    2.51742976   2.50502781   0.36933899 
H    0.19897074   2.99478225   1.65921290 
H   -0.30820798   0.91670242   3.23327723 
H    1.43064920  -1.02717622   2.65903497 
H    3.20841356  -0.04186137   0.92259995 
C    1.01499043  -0.06952333  -2.58130411 
C   -0.24615154  -0.69991506  -2.66727873 
C    1.08269441  -1.97464050  -1.32290224 
C    1.85341130  -0.90310014  -1.78980159 
H    1.32184298   0.79628870  -3.15935159 
C   -0.23560685  -1.82706911  -1.82955711 
H   -1.12536704  -0.30214655  -3.14396635 
H    2.89716091  -0.73892406  -1.57362745 
H    1.40865583  -2.76961707  -0.66555193 
H   -0.98250008  -2.61344625  -1.84166793 
C   -2.51690792  -1.57258619   1.36447092 
H   -2.50193008  -1.45622865   2.41975794 
H   -2.74793252  -2.58438986   1.12963105 
H   -3.34075033  -0.99351065   0.98557308 
C   -1.83018506   1.71172616  -0.71592096 
H   -1.69897412  -1.03546644   0.82771096 
H   -1.44318323   2.54559717  -1.33315332 
H   -2.46978811   2.23101089   0.00450359 
H   -2.54921878   1.22962683  -1.38545391 
*
