! EnGrad PBEh-3c
%output 
xyzfile=True 
end 
%scf 
maxiter 250 
end
%output
Print[P_Hirshfeld] = 1
end
% maxcore
4000
*xyz 0 1
Lu   0.04182549   0.37124431  -0.19085635 
C    0.42798304   0.94024135   2.44184022 
C    1.39241860  -0.05840361   2.17943741 
C    2.34184641   0.48184495   1.29545152 
C    1.94895015   1.79418300   0.96269976 
C    0.78849187   2.09279832   1.70375164 
H    2.50747908   2.49497198   0.35775524 
H    0.21334656   3.00594971   1.67261648 
H   -0.32281389   0.89635813   3.20656002 
H    1.42959371  -1.02942408   2.65015877 
H    3.21737608  -0.04156428   0.92807604 
C    1.01676609  -0.07339489  -2.58017647 
C   -0.25351218  -0.67611904  -2.63507799 
C    1.07235487  -1.96057831  -1.30094551 
C    1.84287362  -0.89149658  -1.78120079 
H    1.32215462   0.80006563  -3.14232002 
C   -0.23386210  -1.82458305  -1.81576598 
H   -1.12079352  -0.30425536  -3.16323756 
H    2.89866818  -0.73965847  -1.57556346 
H    1.41535804  -2.77158258  -0.66979135 
H   -0.99342204  -2.58581825  -1.78736426 
C   -2.55776500  -1.53078952   1.34651992 
H   -2.44822918  -1.43917694   2.41323172 
H   -2.63158319  -2.58417788   1.08803135 
H   -3.40380486  -1.04111111   1.02249723 
C   -1.80341472   1.72210272  -0.73586624 
H   -1.75649386  -1.03778311   0.83414539 
H   -1.42717213   2.54745229  -1.34043136 
H   -2.43290723   2.22032284   0.00654812 
H   -2.52722629   1.23923873  -1.39788011 
*
