! EnGrad PBEh-3c
%output 
xyzfile=True 
end 
%scf 
maxiter 250 
end
%output
Print[P_Hirshfeld] = 1
end
% maxcore
4000
*xyz 0 1
Lu   0.05434084   0.36199955  -0.18537628 
C    0.44116539   0.94005814   2.43076160 
C    1.38368842  -0.05746462   2.17808992 
C    2.33626264   0.47063824   1.27756983 
C    1.94988333   1.79498458   0.96254957 
C    0.76863836   2.08127395   1.69208177 
H    2.50201543   2.48875536   0.35420410 
H    0.21881287   3.01070422   1.67794730 
H   -0.33815543   0.88829749   3.20248995 
H    1.43145609  -1.03179891   2.64649308 
H    3.21788143  -0.03953737   0.92912293 
C    1.01870113  -0.07210816  -2.58302526 
C   -0.27095934  -0.66375507  -2.61332567 
C    1.06254340  -1.95831013  -1.28429485 
C    1.84866714  -0.88002458  -1.76888981 
H    1.32101105   0.79818176  -3.13416754 
C   -0.22258024  -1.82279106  -1.82248076 
H   -1.11821725  -0.30594288  -3.16860086 
H    2.89313136  -0.73922807  -1.57693308 
H    1.41833682  -2.76998649  -0.67224891 
H   -1.00437037  -2.57819974  -1.76588004 
C   -2.56572332  -1.53661990   1.35119788 
H   -2.42810586  -1.42965491   2.41955952 
H   -2.58904975  -2.58511326   1.07135000 
H   -3.45473938  -1.03743105   1.02099064 
C   -1.79880562   1.72443076  -0.74198144 
H   -1.75541604  -1.03795396   0.83083610 
H   -1.41549969   2.55143400  -1.34474187 
H   -2.42095897   2.21941945   0.01150850 
H   -2.52166677   1.23923702  -1.40606505 
*
