! EnGrad PBEh-3c
%output 
xyzfile=True 
end 
%scf 
maxiter 250 
end
%output
Print[P_Hirshfeld] = 1
end
% maxcore
4000
*xyz 0 1
Lu   0.06038748   0.34720228  -0.17614332 
C    0.43422505   0.93742164   2.43000467 
C    1.38292256  -0.06376697   2.16742280 
C    2.32377710   0.46135473   1.25872820 
C    1.94534232   1.78826331   0.96221926 
C    0.75225228   2.07293101   1.67176749 
H    2.49537974   2.48236420   0.34542642 
H    0.22694592   3.01585904   1.68634612 
H   -0.35139579   0.87533281   3.18545540 
H    1.43252925  -1.03497922   2.64100916 
H    3.22082257  -0.03842979   0.92981373 
C    1.01648075  -0.07611000  -2.57766620 
C   -0.28120460  -0.64620080  -2.58727743 
C    1.06032138  -1.94453287  -1.26621124 
C    1.84070862  -0.87058777  -1.75417126 
H    1.32077429   0.80120183  -3.12428224 
C   -0.22340328  -1.82333438  -1.82233339 
H   -1.11706691  -0.30751017  -3.17723921 
H    2.89237638  -0.73738606  -1.57737232 
H    1.42280321  -2.77082022  -0.67330707 
H   -1.01602648  -2.56152631  -1.73119595 
C   -2.57923356  -1.53367486   1.35087367 
H   -2.39787451  -1.41721590   2.41904501 
H   -2.52057632  -2.58059156   1.04774625 
H   -3.51479773  -1.05094394   1.03022543 
C   -1.78900605   1.72663462  -0.75076805 
H   -1.77199659  -1.03413321   0.82814005 
H   -1.39760997   2.55815145  -1.35214095 
H   -2.39937786   2.21653007   0.01595572 
H   -2.51032600   1.24226526  -1.41771065 
*
