38
Coordinates from ORCA-job reaction-1-dhsgs_optts_Compound_2_IRC_F E -988.531792969749
  Pd      0.406756      0.422215     -0.256421
  O       1.816353      1.674976      0.446565
  C       1.360723      2.632309      1.147960
  O       0.192381      2.704284      1.567070
  C       2.321344      3.751885      1.454342
  H       2.048447      4.251468      2.380256
  H       2.269529      4.485689      0.648230
  H       3.347236      3.394946      1.507762
  N      -1.227968     -0.657306     -0.987024
  C      -0.980211     -2.110096     -0.948041
  H      -0.153365     -2.358892     -1.605454
  H      -1.878385     -2.652138     -1.264287
  H      -0.713529     -2.426712      0.057060
  C      -1.605074     -0.269062     -2.353115
  H      -1.742347      0.808507     -2.415494
  H      -2.538977     -0.764022     -2.639012
  H      -0.826761     -0.555102     -3.052957
  C      -1.819874     -0.471219      1.341212
  C      -2.383702     -1.363974      2.235048
  C      -1.752724     -1.623572      3.446259
  C      -0.539883     -1.022072      3.742999
  C       0.020396     -0.126329      2.846023
  C      -0.619534      0.190923      1.646881
  H      -0.036548     -1.246037      4.673817
  H       0.953640      0.362859      3.093748
  H      -3.302020     -1.880480      1.983263
  H      -2.199551     -2.316785      4.146907
  H      -0.408034      1.333480      1.392970
  C      -2.328100     -0.301564     -0.053837
  H      -2.608380      0.738513     -0.242378
  H      -3.206178     -0.924586     -0.260806
  O       1.312741      0.492069     -2.027802
  C       2.103757     -0.503356     -2.277029
  O       2.195094     -1.510225     -1.598346
  C       2.947325     -0.299993     -3.520568
  H       3.723977      0.437317     -3.312349
  H       2.355224      0.088782     -4.348461
  H       3.425168     -1.230053     -3.818641
38
Coordinates from ORCA-job reaction-1-dhsgs_optts_Compound_2_IRC_F E -988.532232975215
  Pd      0.410709      0.424797     -0.259186
  O       1.815658      1.674033      0.445779
  C       1.361471      2.633331      1.147858
  O       0.193412      2.712195      1.567001
  C       2.322643      3.751633      1.454142
  H       2.048671      4.251438      2.380076
  H       2.269658      4.485704      0.648233
  H       3.347825      3.394989      1.507810
  N      -1.228010     -0.657572     -0.987391
  C      -0.980317     -2.110210     -0.948057
  H      -0.153362     -2.358872     -1.605430
  H      -1.878380     -2.652231     -1.264278
  H      -0.713485     -2.426727      0.057060
  C      -1.605179     -0.269101     -2.353145
  H      -1.742312      0.808549     -2.415475
  H      -2.538990     -0.763988     -2.639081
  H      -0.826754     -0.555086     -3.052942
  C      -1.821725     -0.473043      1.341023
  C      -2.383510     -1.365166      2.234542
  C      -1.752606     -1.623471      3.446050
  C      -0.538946     -1.023380      3.743133
  C       0.020760     -0.127312      2.848429
  C      -0.624172      0.186618      1.653344
  H      -0.036504     -1.246168      4.673980
  H       0.953385      0.363647      3.093802
  H      -3.301989     -1.880591      1.983219
  H      -2.199614     -2.316543      4.146914
  H      -0.409756      1.331935      1.388834
  C      -2.327852     -0.301088     -0.054140
  H      -2.608353      0.738730     -0.242417
  H      -3.206157     -0.924420     -0.260717
  O       1.312530      0.492173     -2.027349
  C       2.103792     -0.503424     -2.276711
  O       2.195028     -1.510264     -1.598208
  C       2.947147     -0.299798     -3.520384
  H       3.723965      0.437392     -3.312262
  H       2.355222      0.088859     -4.348429
  H       3.425118     -1.229948     -3.818532
38
Coordinates from ORCA-job reaction-1-dhsgs_optts_Compound_2_IRC_F E -988.532484956032
  Pd      0.412634      0.426583     -0.260549
  O       1.815341      1.673625      0.445281
  C       1.361099      2.635013      1.148203
  O       0.195059      2.718363      1.566122
  C       2.324021      3.751546      1.453953
  H       2.048982      4.251321      2.379827
  H       2.269900      4.485714      0.648231
  H       3.348718      3.395045      1.507853
  N      -1.227811     -0.657615     -0.987630
  C      -0.980351     -2.110253     -0.948087
  H      -0.153377     -2.358885     -1.605413
  H      -1.878393     -2.652337     -1.264269
  H      -0.713448     -2.426722      0.057050
  C      -1.605244     -0.269116     -2.353227
  H      -1.742287      0.808551     -2.415457
  H      -2.539047     -0.763971     -2.639183
  H      -0.826774     -0.555075     -3.052960
  C      -1.822559     -0.474153      1.341100
  C      -2.383579     -1.366549      2.234408
  C      -1.752536     -1.623790      3.446070
  C      -0.538457     -1.024869      3.743636
  C       0.020791     -0.127807      2.850013
  C      -0.627281      0.185233      1.657411
  H      -0.036360     -1.246593      4.674535
  H       0.953135      0.364351      3.093961
  H      -3.302305     -1.881063      1.983229
  H      -2.199702     -2.316326      4.146942
  H      -0.411735      1.328893      1.385413
  C      -2.327720     -0.300890     -0.054400
  H      -2.608273      0.738964     -0.242424
  H      -3.206100     -0.924190     -0.260754
  O       1.312699      0.492415     -2.027266
  C       2.103919     -0.503531     -2.276551
  O       2.194962     -1.510276     -1.598041
  C       2.947029     -0.299668     -3.520240
  H       3.723928      0.437462     -3.312167
  H       2.355204      0.088938     -4.348374
  H       3.425041     -1.229814     -3.818410
38
Coordinates from ORCA-job reaction-1-dhsgs_optts_Compound_2_IRC_F E -988.532830965606
  Pd      0.414446      0.429224     -0.261883
  O       1.814830      1.673761      0.444955
  C       1.360562      2.638166      1.148518
  O       0.197622      2.728111      1.564013
  C       2.326593      3.751676      1.453679
  H       2.049758      4.251081      2.379322
  H       2.270570      4.485803      0.648195
  H       3.350737      3.395148      1.507910
  N      -1.227364     -0.657539     -0.987951
  C      -0.980350     -2.110267     -0.948144
  H      -0.153403     -2.358949     -1.605405
  H      -1.878403     -2.652503     -1.264243
  H      -0.713383     -2.426689      0.057017
  C      -1.605329     -0.269145     -2.353385
  H      -1.742253      0.808545     -2.415443
  H      -2.539158     -0.763945     -2.639384
  H      -0.826821     -0.555060     -3.053052
  C      -1.823692     -0.475740      1.341422
  C      -2.383826     -1.369093      2.234352
  C      -1.752388     -1.624705      3.446184
  C      -0.537799     -1.027437      3.744659
  C       0.020534     -0.128350      2.852522
  C      -0.631447      0.185190      1.662731
  H      -0.036066     -1.247696      4.675797
  H       0.952538      0.365530      3.094367
  H      -3.303027     -1.882234      1.983327
  H      -2.200014     -2.316165      4.147205
  H      -0.415762      1.321852      1.379768
  C      -2.327452     -0.300683     -0.054661
  H      -2.608050      0.739352     -0.242382
  H      -3.205977     -0.923739     -0.260950
  O       1.313306      0.492950     -2.027320
  C       2.104183     -0.503703     -2.276327
  O       2.194833     -1.510234     -1.597737
  C       2.946891     -0.299494     -3.520034
  H       3.723838      0.437592     -3.311978
  H       2.355148      0.089086     -4.348245
  H       3.424903     -1.229583     -3.818197
38
Coordinates from ORCA-job reaction-1-dhsgs_optts_Compound_2_IRC_F E -988.533183052146
  Pd      0.414959      0.431772     -0.262382
  O       1.814069      1.675097      0.445397
  C       1.361107      2.641649      1.147951
  O       0.199178      2.737962      1.561141
  C       2.329709      3.752231      1.453454
  H       2.051067      4.250869      2.378736
  H       2.271791      4.486106      0.648087
  H       3.353621      3.395286      1.507925
  N      -1.226901     -0.657355     -0.988163
  C      -0.980272     -2.110205     -0.948207
  H      -0.153409     -2.359078     -1.605434
  H      -1.878370     -2.652614     -1.264188
  H      -0.713299     -2.426620      0.056956
  C      -1.605375     -0.269168     -2.353551
  H      -1.742234      0.808542     -2.415467
  H      -2.539269     -0.763913     -2.639609
  H      -0.826884     -0.555048     -3.053244
  C      -1.824802     -0.477155      1.342087
  C      -2.383904     -1.371744      2.234297
  C      -1.752269     -1.626273      3.446414
  C      -0.537129     -1.029881      3.745617
  C       0.019716     -0.128540      2.855084
  C      -0.634906      0.187009      1.667078
  H      -0.035733     -1.249455      4.677477
  H       0.951586      0.366803      3.095068
  H      -3.303960     -1.884028      1.983546
  H      -2.200617     -2.316386      4.147864
  H      -0.421136      1.312030      1.373708
  C      -2.327050     -0.300510     -0.054646
  H      -2.607660      0.739694     -0.242224
  H      -3.205823     -0.923200     -0.261347
  O       1.314234      0.493687     -2.027400
  C       2.104489     -0.503894     -2.276007
  O       2.194650     -1.510013     -1.597457
  C       2.946841     -0.299357     -3.519884
  H       3.723712      0.437747     -3.311736
  H       2.355059      0.089258     -4.348046
  H       3.424775     -1.229369     -3.817986
38
Coordinates from ORCA-job reaction-1-dhsgs_optts_Compound_2_IRC_F E -988.533512226778
  Pd      0.415397      0.434313     -0.262908
  O       1.813582      1.675880      0.445415
  C       1.361430      2.645789      1.147596
  O       0.199888      2.746959      1.557621
  C       2.333105      3.752930      1.453105
  H       2.052944      4.250971      2.378388
  H       2.273724      4.486843      0.647917
  H       3.356768      3.395599      1.507853
  N      -1.226631     -0.657253     -0.988182
  C      -0.980134     -2.110107     -0.948249
  H      -0.153372     -2.359221     -1.605500
  H      -1.878258     -2.652569     -1.264096
  H      -0.713176     -2.426528      0.056899
  C      -1.605390     -0.269128     -2.353642
  H      -1.742234      0.808560     -2.415552
  H      -2.539302     -0.763867     -2.639758
  H      -0.826952     -0.555032     -3.053464
  C      -1.825590     -0.477994      1.342823
  C      -2.383859     -1.374147      2.234283
  C      -1.752084     -1.628075      3.446691
  C      -0.536700     -1.031912      3.746483
  C       0.018691     -0.127982      2.857119
  C      -0.638764      0.186618      1.671541
  H      -0.035632     -1.251494      4.678660
  H       0.950265      0.368061      3.096128
  H      -3.304400     -1.885996      1.983879
  H      -2.201333     -2.317038      4.148747
  H      -0.426889      1.302909      1.367661
  C      -2.326807     -0.300368     -0.054470
  H      -2.607123      0.739923     -0.241889
  H      -3.205601     -0.922626     -0.261818
  O       1.314938      0.494500     -2.026922
  C       2.104726     -0.503702     -2.275708
  O       2.194431     -1.509892     -1.597078
  C       2.946814     -0.299238     -3.519720
  H       3.723604      0.437914     -3.311489
  H       2.354953      0.089420     -4.347805
  H       3.424734     -1.229273     -3.817852
38
Coordinates from ORCA-job reaction-1-dhsgs_optts_Compound_2_IRC_F E -988.533824032232
  Pd      0.415545      0.436794     -0.263087
  O       1.812961      1.677347      0.445875
  C       1.361610      2.649316      1.146637
  O       0.200563      2.755647      1.553430
  C       2.336427      3.753814      1.452795
  H       2.055411      4.251288      2.378039
  H       2.276281      4.487883      0.647805
  H       3.360074      3.395962      1.507684
  N      -1.226280     -0.657046     -0.988181
  C      -0.979949     -2.109973     -0.948254
  H      -0.153323     -2.359325     -1.605570
  H      -1.878136     -2.652467     -1.263989
  H      -0.713000     -2.426432      0.056867
  C      -1.605400     -0.269096     -2.353661
  H      -1.742244      0.808604     -2.415656
  H      -2.539307     -0.763813     -2.639867
  H      -0.827046     -0.555004     -3.053624
  C      -1.826998     -0.479550      1.343558
  C      -2.384057     -1.376800      2.234629
  C      -1.751914     -1.629975      3.446995
  C      -0.536625     -1.033910      3.747485
  C       0.017466     -0.127739      2.859649
  C      -0.641922      0.186940      1.675049
  H      -0.035601     -1.253711      4.679606
  H       0.948724      0.369549      3.097366
  H      -3.304603     -1.888179      1.984269
  H      -2.201933     -2.317888      4.149553
  H      -0.432803      1.293838      1.361527
  C      -2.326559     -0.300299     -0.054250
  H      -2.606531      0.740223     -0.241443
  H      -3.205441     -0.922046     -0.262300
  O       1.315738      0.495382     -2.026347
  C       2.104899     -0.503481     -2.275231
  O       2.194167     -1.509645     -1.596741
  C       2.946751     -0.299110     -3.519473
  H       3.723509      0.438083     -3.311254
  H       2.354841      0.089580     -4.347533
  H       3.424662     -1.229143     -3.817686
38
Coordinates from ORCA-job reaction-1-dhsgs_optts_Compound_2_IRC_F E -988.534120997157
  Pd      0.415723      0.439250     -0.263239
  O       1.812546      1.678419      0.446047
  C       1.361916      2.653381      1.145670
  O       0.200709      2.764204      1.548796
  C       2.339907      3.754726      1.452376
  H       2.058330      4.251804      2.377747
  H       2.279363      4.489167      0.647777
  H       3.363314      3.396361      1.507418
  N      -1.225989     -0.656864     -0.988074
  C      -0.979723     -2.109801     -0.948240
  H      -0.153252     -2.359392     -1.605644
  H      -1.877980     -2.652286     -1.263857
  H      -0.712771     -2.426325      0.056851
  C      -1.605387     -0.269005     -2.353641
  H      -1.742261      0.808657     -2.415768
  H      -2.539291     -0.763762     -2.639910
  H      -0.827139     -0.554968     -3.053737
  C      -1.828014     -0.481068      1.344438
  C      -2.384089     -1.379267      2.234856
  C      -1.751971     -1.632117      3.447475
  C      -0.536602     -1.035617      3.748293
  C       0.015948     -0.127266      2.861768
  C      -0.645453      0.186086      1.678797
  H      -0.035587     -1.256139      4.680575
  H       0.946881      0.371124      3.098858
  H      -3.304953     -1.890796      1.984707
  H      -2.202477     -2.319051      4.150407
  H      -0.438689      1.285557      1.355253
  C      -2.326388     -0.300277     -0.053983
  H      -2.605872      0.740455     -0.240822
  H      -3.205400     -0.921497     -0.262889
  O       1.316518      0.496356     -2.025564
  C       2.105052     -0.502991     -2.274828
  O       2.193861     -1.509551     -1.596227
  C       2.946668     -0.298950     -3.519173
  H       3.723414      0.438253     -3.311021
  H       2.354718      0.089739     -4.347209
  H       3.424552     -1.228989     -3.817472
38
Coordinates from ORCA-job reaction-1-dhsgs_optts_Compound_2_IRC_F E -988.534396765138
  Pd      0.415740      0.441563     -0.263175
  O       1.812083      1.679998      0.446576
  C       1.362037      2.656898      1.144194
  O       0.200959      2.772412      1.543598
  C       2.343204      3.755782      1.451970
  H       2.061679      4.252492      2.377461
  H       2.282933      4.490723      0.647801
  H       3.366579      3.396634      1.507048
  N      -1.225683     -0.656616     -0.987947
  C      -0.979468     -2.109608     -0.948190
  H      -0.153158     -2.359395     -1.605716
  H      -1.877803     -2.652052     -1.263701
  H      -0.712484     -2.426211      0.056848
  C      -1.605386     -0.268930     -2.353534
  H      -1.742287      0.808752     -2.415866
  H      -2.539242     -0.763702     -2.639885
  H      -0.827217     -0.554921     -3.053780
  C      -1.829544     -0.483094      1.345071
  C      -2.384651     -1.382226      2.235391
  C      -1.751925     -1.634130      3.447858
  C      -0.536915     -1.037474      3.749449
  C       0.014457     -0.126942      2.864237
  C      -0.648335      0.185976      1.681585
  H      -0.035704     -1.258566      4.681229
  H       0.944721      0.372818      3.100448
  H      -3.305052     -1.893547      1.985227
  H      -2.202930     -2.320538      4.151258
  H      -0.444320      1.277842      1.349173
  C      -2.326267     -0.300432     -0.053650
  H      -2.605181      0.740665     -0.240019
  H      -3.205405     -0.920933     -0.263508
  O       1.317360      0.497382     -2.024701
  C       2.105168     -0.502603     -2.274192
  O       2.193487     -1.509225     -1.595806
  C       2.946549     -0.298760     -3.518800
  H       3.723339      0.438443     -3.310790
  H       2.354566      0.089910     -4.346849
  H       3.424391     -1.228817     -3.817191
38
Coordinates from ORCA-job reaction-1-dhsgs_optts_Compound_2_IRC_F E -988.534658916333
  Pd      0.415813      0.443792     -0.263084
  O       1.811895      1.681030      0.446738
  C       1.362326      2.661062      1.142781
  O       0.200710      2.780478      1.538035
  C       2.346684      3.756810      1.451425
  H       2.065338      4.253317      2.377222
  H       2.286917      4.492493      0.647901
  H       3.369641      3.396822      1.506574
  N      -1.225431     -0.656419     -0.987714
  C      -0.979168     -2.109385     -0.948133
  H      -0.153037     -2.359341     -1.605788
  H      -1.877599     -2.651766     -1.263520
  H      -0.712136     -2.426083      0.056859
  C      -1.605343     -0.268778     -2.353405
  H      -1.742319      0.808844     -2.415936
  H      -2.539188     -0.763650     -2.639789
  H      -0.827292     -0.554859     -3.053744
  C      -1.830450     -0.484924      1.345959
  C      -2.384799     -1.384838      2.235760
  C      -1.752200     -1.636493      3.448470
  C      -0.537346     -1.038983      3.750179
  C       0.012545     -0.126369      2.866064
  C      -0.651731      0.184655      1.684725
  H      -0.035798     -1.261123      4.682056
  H       0.942346      0.374598      3.102275
  H      -3.305490     -1.896805      1.985766
  H      -2.203254     -2.322286      4.152070
  H      -0.449680      1.271143      1.343217
  C      -2.326224     -0.300642     -0.053333
  H      -2.604459      0.740757     -0.238995
  H      -3.205588     -0.920452     -0.264278
  O       1.318165      0.498537     -2.023699
  C       2.105307     -0.502244     -2.273462
  O       2.193050     -1.508816     -1.595358
  C       2.946424     -0.298519     -3.518400
  H       3.723259      0.438643     -3.310555
  H       2.354393      0.090088     -4.346420
  H       3.424172     -1.228622     -3.816828
38
Coordinates from ORCA-job reaction-1-dhsgs_optts_Compound_2_IRC_F E -988.534905219391
  Pd      0.415783      0.445905     -0.262842
  O       1.811675      1.682477      0.447216
  C       1.362524      2.664780      1.140912
  O       0.200621      2.788313      1.531996
  C       2.349928      3.757918      1.450851
  H       2.069279      4.254229      2.376972
  H       2.291271      4.494492      0.648028
  H       3.372729      3.396769      1.506006
  N      -1.225158     -0.656166     -0.987468
  C      -0.978842     -2.109153     -0.948049
  H      -0.152887     -2.359221     -1.605864
  H      -1.877370     -2.651458     -1.263315
  H      -0.711728     -2.425950      0.056877
  C      -1.605332     -0.268654     -2.353179
  H      -1.742355      0.808977     -2.415961
  H      -2.539103     -0.763583     -2.639627
  H      -0.827332     -0.554783     -3.053640
  C      -1.831951     -0.487227      1.346607
  C      -2.385520     -1.387944      2.236268
  C      -1.752364     -1.638750      3.448952
  C      -0.537939     -1.040636      3.751314
  C       0.010675     -0.125979      2.868310
  C      -0.654481      0.184372      1.686992
  H      -0.036097     -1.263553      4.682501
  H       0.939667      0.376469      3.104144
  H      -3.305604     -1.900102      1.986379
  H      -2.203487     -2.324348      4.152859
  H      -0.454732      1.264838      1.337672
  C      -2.326285     -0.301058     -0.052980
  H      -2.603742      0.740808     -0.237784
  H      -3.205767     -0.919955     -0.265074
  O       1.319035      0.499682     -2.022634
  C       2.105383     -0.501602     -2.272783
  O       2.192579     -1.508510     -1.594767
  C       2.946257     -0.298264     -3.517893
  H       3.723195      0.438875     -3.310310
  H       2.354175      0.090288     -4.345944
  H       3.423907     -1.228421     -3.816394
38
Coordinates from ORCA-job reaction-1-dhsgs_optts_Compound_2_IRC_F E -988.535141465817
  Pd      0.415801      0.447962     -0.262556
  O       1.811591      1.683800      0.447628
  C       1.362753      2.668555      1.138812
  O       0.200327      2.796165      1.525594
  C       2.353432      3.759156      1.450230
  H       2.073449      4.255166      2.376673
  H       2.295963      4.496645      0.648220
  H       3.375613      3.396555      1.505331
  N      -1.224964     -0.655956     -0.987154
  C      -0.978481     -2.108904     -0.947950
  H      -0.152700     -2.359044     -1.605948
  H      -1.877104     -2.651127     -1.263085
  H      -0.711255     -2.425808      0.056898
  C      -1.605270     -0.268479     -2.352928
  H      -1.742398      0.809116     -2.415932
  H      -2.539015     -0.763520     -2.639403
  H      -0.827368     -0.554683     -3.053454
  C      -1.833110     -0.489362      1.347311
  C      -2.385860     -1.390848      2.236754
  C      -1.752677     -1.641187      3.449459
  C      -0.538764     -1.042050      3.751995
  C       0.008537     -0.125388      2.870179
  C      -0.657634      0.183328      1.689540
  H      -0.036368     -1.266029      4.683145
  H       0.936740      0.378405      3.106176
  H      -3.305959     -1.903806      1.986964
  H      -2.203632     -2.326716      4.153635
  H      -0.459546      1.259280      1.332392
  C      -2.326251     -0.301451     -0.052519
  H      -2.603045      0.740746     -0.236387
  H      -3.206169     -0.919613     -0.266026
  O       1.319873      0.500950     -2.021487
  C       2.105476     -0.501193     -2.271844
  O       2.192039     -1.507928     -1.594281
  C       2.946100     -0.297954     -3.517384
  H       3.723121      0.439122     -3.310051
  H       2.353931      0.090502     -4.345387
  H       3.423578     -1.228196     -3.815867
38
Coordinates from ORCA-job reaction-1-dhsgs_optts_Compound_2_IRC_F E -988.535366485672
  Pd      0.415747      0.449906     -0.262166
  O       1.811604      1.685034      0.448023
  C       1.363072      2.672560      1.136611
  O       0.200043      2.803837      1.518800
  C       2.356635      3.760213      1.449435
  H       2.077772      4.256146      2.376415
  H       2.300952      4.499004      0.648400
  H       3.378546      3.396073      1.504577
  N      -1.224705     -0.655701     -0.986788
  C      -0.978081     -2.108649     -0.947844
  H      -0.152492     -2.358800     -1.606031
  H      -1.876808     -2.650803     -1.262835
  H      -0.710716     -2.425666      0.056927
  C      -1.605253     -0.268308     -2.352587
  H      -1.742444      0.809284     -2.415835
  H      -2.538901     -0.763440     -2.639123
  H      -0.827362     -0.554562     -3.053199
  C      -1.834558     -0.491758      1.348005
  C      -2.386647     -1.394091      2.237188
  C      -1.752960     -1.643677      3.449957
  C      -0.539624     -1.043590      3.753104
  C       0.006305     -0.124901      2.872233
  C      -0.660382      0.183064      1.691505
  H      -0.036865     -1.268323      4.683441
  H       0.933626      0.380460      3.108270
  H      -3.306032     -1.907554      1.987565
  H      -2.203628     -2.329298      4.154266
  H      -0.464104      1.254083      1.327636
  C      -2.326547     -0.302113     -0.052208
  H      -2.602384      0.740648     -0.234834
  H      -3.206440     -0.919200     -0.266966
  O       1.320734      0.502233     -2.020283
  C       2.105546     -0.500592     -2.270952
  O       2.191466     -1.507395     -1.593673
  C       2.945891     -0.297624     -3.516755
  H       3.723062      0.439406     -3.309773
  H       2.353639      0.090742     -4.344778
  H       3.423209     -1.227973     -3.815268
38
Coordinates from ORCA-job reaction-1-dhsgs_optts_Compound_2_IRC_F E -988.535581019621
  Pd      0.415748      0.451795     -0.261747
  O       1.811712      1.686204      0.448413
  C       1.363359      2.676345      1.134114
  O       0.199636      2.811499      1.511769
  C       2.360163      3.761481      1.448647
  H       2.082195      4.257033      2.376037
  H       2.306154      4.501408      0.648643
  H       3.381194      3.395410      1.503723
  N      -1.224569     -0.655504     -0.986388
  C      -0.977664     -2.108383     -0.947706
  H      -0.152239     -2.358503     -1.606132
  H      -1.876462     -2.650478     -1.262564
  H      -0.710111     -2.425524      0.056954
  C      -1.605173     -0.268092     -2.352225
  H      -1.742495      0.809454     -2.415664
  H      -2.538784     -0.763361     -2.638788
  H      -0.827353     -0.554407     -3.052862
  C      -1.835713     -0.493896      1.348677
  C      -2.386986     -1.397052      2.237557
  C      -1.753394     -1.646325      3.450429
  C      -0.540646     -1.044823      3.753686
  C       0.003897     -0.124209      2.873965
  C      -0.663550      0.182049      1.693825
  H      -0.037319     -1.270589      4.683999
  H       0.930300      0.382539      3.110478
  H      -3.306306     -1.911617      1.988069
  H      -2.203537     -2.332152      4.154838
  H      -0.468400      1.249686      1.323298
  C      -2.326552     -0.302623     -0.051676
  H      -2.601808      0.740441     -0.233175
  H      -3.207010     -0.919044     -0.268058
  O       1.321547      0.503577     -2.019026
  C       2.105594     -0.499951     -2.269989
  O       2.190864     -1.506837     -1.593008
  C       2.945704     -0.297253     -3.516133
  H       3.722984      0.439699     -3.309475
  H       2.353325      0.090992     -4.344082
  H       3.422784     -1.227722     -3.814582
38
Coordinates from ORCA-job reaction-1-dhsgs_optts_Compound_2_IRC_F E -988.535783755042
  Pd      0.415648      0.453554     -0.261234
  O       1.811836      1.687357      0.448854
  C       1.363743      2.680267      1.131558
  O       0.199387      2.818912      1.504471
  C       2.363200      3.762408      1.447657
  H       2.086624      4.257913      2.375730
  H       2.311512      4.503955      0.648814
  H       3.383971      3.394479      1.502823
  N      -1.224309     -0.655239     -0.985921
  C      -0.977197     -2.108120     -0.947583
  H      -0.151985     -2.358141     -1.606217
  H      -1.876094     -2.650189     -1.262278
  H      -0.709449     -2.425389      0.056991
  C      -1.605159     -0.267896     -2.351777
  H      -1.742549      0.809661     -2.415417
  H      -2.538645     -0.763262     -2.638420
  H      -0.827299     -0.554227     -3.052473
  C      -1.837253     -0.496304      1.349341
  C      -2.387846     -1.400412      2.237920
  C      -1.753641     -1.648869      3.450802
  C      -0.541718     -1.046303      3.754838
  C       0.001473     -0.123697      2.876002
  C      -0.666095      0.182257      1.695457
  H      -0.038015     -1.272589      4.684173
  H       0.926907      0.384734      3.112686
  H      -3.306203     -1.915569      1.988521
  H      -2.203321     -2.335157      4.155229
  H      -0.472504      1.245432      1.319595
  C      -2.327110     -0.303480     -0.051440
  H      -2.601298      0.740230     -0.231458
  H      -3.207249     -0.918715     -0.269027
  O       1.322363      0.504903     -2.017761
  C       2.105627     -0.499281     -2.268993
  O       2.190239     -1.506196     -1.592324
  C       2.945454     -0.296872     -3.515382
  H       3.722931      0.440034     -3.309154
  H       2.352965      0.091273     -4.343363
  H       3.422339     -1.227486     -3.813843
38
Coordinates from ORCA-job reaction-1-dhsgs_optts_Compound_2_IRC_F E -988.535972881501
  Pd      0.415649      0.455247     -0.260737
  O       1.812082      1.688279      0.449187
  C       1.364044      2.683777      1.128779
  O       0.198894      2.826217      1.497247
  C       2.366813      3.763709      1.446788
  H       2.090968      4.258563      2.375206
  H       2.316856      4.506338      0.649083
  H       3.386233      3.393455      1.501843
  N      -1.224296     -0.655082     -0.985471
  C      -0.976763     -2.107849     -0.947400
  H      -0.151669     -2.357749     -1.606338
  H      -1.875667     -2.649905     -1.261979
  H      -0.708739     -2.425261      0.057018
  C      -1.605036     -0.267634     -2.351341
  H      -1.742608      0.809848     -2.415100
  H      -2.538512     -0.763171     -2.638013
  H      -0.827255     -0.554007     -3.052017
  C      -1.838200     -0.498101      1.349954
  C      -2.387877     -1.403130      2.238145
  C      -1.754160     -1.651613      3.451168
  C      -0.542881     -1.047239      3.755089
  C      -0.001052     -0.122833      2.877484
  C      -0.669443      0.180938      1.697845
  H      -0.038547     -1.274566      4.684864
  H       0.923417      0.386856      3.114975
  H      -3.306446     -1.919800      1.988791
  H      -2.203034     -2.338324      4.155534
  H      -0.476286      1.242314      1.316309
  C      -2.326904     -0.303880     -0.050745
  H      -2.600936      0.739898     -0.229763
  H      -3.208045     -0.918866     -0.270192
  O       1.323061      0.506270     -2.016486
  C       2.105642     -0.498639     -2.267936
  O       2.189615     -1.505549     -1.591600
  C       2.945269     -0.296449     -3.514725
  H       3.722835      0.440349     -3.308815
  H       2.352611      0.091546     -4.342557
  H       3.421845     -1.227208     -3.813036
38
Coordinates from ORCA-job reaction-1-dhsgs_optts_Compound_2_IRC_F E -988.536142423683
  Pd      0.415453      0.456715     -0.260152
  O       1.812211      1.689285      0.449669
  C       1.364507      2.687417      1.126202
  O       0.198846      2.832843      1.490081
  C       2.369205      3.764205      1.445616
  H       2.095047      4.259246      2.374930
  H       2.322045      4.508805      0.649151
  H       3.388857      3.392188      1.500912
  N      -1.223953     -0.654791     -0.984937
  C      -0.976249     -2.107604     -0.947292
  H      -0.151420     -2.357303     -1.606397
  H      -1.875270     -2.649696     -1.261685
  H      -0.708018     -2.425145      0.057065
  C      -1.605071     -0.267449     -2.350831
  H      -1.742668      0.810088     -2.414733
  H      -2.538356     -0.763051     -2.637617
  H      -0.827155     -0.553776     -3.051554
  C      -1.839906     -0.500450      1.350572
  C      -2.389008     -1.406534      2.238384
  C      -1.754199     -1.653918      3.451354
  C      -0.543965     -1.048738      3.756569
  C      -0.003372     -0.122424      2.879593
  C      -0.671284      0.182268      1.698857
  H      -0.039454     -1.276080      4.684784
  H       0.920118      0.389045      3.117088
  H      -3.305964     -1.923456      1.989011
  H      -2.202657     -2.341421      4.155610
  H      -0.479854      1.238856      1.313864
  C      -2.328004     -0.305000     -0.050788
  H      -2.600626      0.739663     -0.228149
  H      -3.207943     -0.918472     -0.270946
  O       1.323758      0.507491     -2.015297
  C       2.105642     -0.498033     -2.266896
  O       2.189011     -1.504789     -1.590940
  C       2.944974     -0.296062     -3.513887
  H       3.722797      0.440713     -3.308467
  H       2.352218      0.091851     -4.341821
  H       3.421388     -1.226987     -3.812248
38
Coordinates from ORCA-job reaction-1-dhsgs_optts_Compound_2_IRC_F E -988.536208838893
  Pd      0.415467      0.457271     -0.259962
  O       1.812352      1.689481      0.449737
  C       1.364595      2.688534      1.125127
  O       0.198598      2.835372      1.487495
  C       2.370656      3.764754      1.445322
  H       2.096542      4.259354      2.374652
  H       2.323952      4.509577      0.649268
  H       3.389482      3.391744      1.500524
  N      -1.224039     -0.654760     -0.984778
  C      -0.976107     -2.107504     -0.947197
  H      -0.151276     -2.357140     -1.606455
  H      -1.875084     -2.649607     -1.261569
  H      -0.707732     -2.425105      0.057073
  C      -1.604998     -0.267332     -2.350658
  H      -1.742694      0.810155     -2.414575
  H      -2.538306     -0.763016     -2.637455
  H      -0.827131     -0.553671     -3.051361
  C      -1.840078     -0.500869      1.350768
  C      -2.388773     -1.407316      2.238401
  C      -1.754453     -1.654960      3.451455
  C      -0.544405     -1.048900      3.756422
  C      -0.004309     -0.122008      2.879989
  C      -0.672712      0.181415      1.699898
  H      -0.039628     -1.276721      4.685174
  H       0.918843      0.389805      3.117945
  H      -3.306092     -1.925041      1.988998
  H      -2.202499     -2.342634      4.155628
  H      -0.481072      1.238230      1.312969
  C      -2.327663     -0.304985     -0.050390
  H      -2.600586      0.739498     -0.227577
  H      -3.208409     -0.918712     -0.271405
  O       1.323944      0.507994     -2.014845
  C       2.105643     -0.497888     -2.266441
  O       2.188786     -1.504476     -1.590701
  C       2.944924     -0.295889     -3.513671
  H       3.722747      0.440825     -3.308329
  H       2.352089      0.091952     -4.341494
  H       3.421191     -1.226871     -3.811923
38
Coordinates from ORCA-job reaction-1-dhsgs_optts_Compound_2_IRC_F E -988.536291281895
  Pd      0.415418      0.457979     -0.259701
  O       1.812468      1.689849      0.449923
  C       1.364811      2.690106      1.123745
  O       0.198431      2.838597      1.484021
  C       2.372127      3.765167      1.444807
  H       2.098489      4.259555      2.374401
  H       2.326477      4.510679      0.649341
  H       3.390527      3.391083      1.500029
  N      -1.223996     -0.654670     -0.984528
  C      -0.975874     -2.107372     -0.947109
  H      -0.151124     -2.356906     -1.606503
  H      -1.874855     -2.649512     -1.261417
  H      -0.707354     -2.425051      0.057093
  C      -1.604961     -0.267208     -2.350414
  H      -1.742727      0.810265     -2.414359
  H      -2.538234     -0.762959     -2.637245
  H      -0.827087     -0.553530     -3.051103
  C      -1.840612     -0.501694      1.351053
  C      -2.388900     -1.408668      2.238448
  C      -1.754602     -1.656199      3.451545
  C      -0.544977     -1.049372      3.756712
  C      -0.005498     -0.121622      2.880766
  C      -0.674037      0.181324      1.700802
  H      -0.039994     -1.277456      4.685404
  H       0.917189      0.390857      3.119035
  H      -3.306005     -1.926968      1.988992
  H      -2.202273     -2.344225      4.155600
  H      -0.482707      1.237069      1.311957
  C      -2.327808     -0.305292     -0.050181
  H      -2.600517      0.739324     -0.226826
  H      -3.208629     -0.918762     -0.271854
  O       1.324249      0.508529     -2.014242
  C       2.105574     -0.496984     -2.266309
  O       2.188540     -1.504630     -1.589990
  C       2.944797     -0.295705     -3.513262
  H       3.722705      0.440997     -3.308139
  H       2.351892      0.092101     -4.341090
  H       3.420952     -1.226740     -3.811514
38
Coordinates from ORCA-job reaction-1-dhsgs_optts_Compound_2_IRC_F E -988.536381869635
  Pd      0.415339      0.458766     -0.259374
  O       1.812606      1.690238      0.450125
  C       1.365054      2.691949      1.122170
  O       0.198279      2.842270      1.479987
  C       2.373745      3.765594      1.444184
  H       2.100716      4.259765      2.374112
  H       2.329391      4.511942      0.649411
  H       3.391755      3.390282      1.499455
  N      -1.223934     -0.654550     -0.984237
  C      -0.975604     -2.107226     -0.947007
  H      -0.150943     -2.356627     -1.606555
  H      -1.874585     -2.649407     -1.261238
  H      -0.706907     -2.424990      0.057118
  C      -1.604936     -0.267069     -2.350114
  H      -1.742767      0.810398     -2.414097
  H      -2.538143     -0.762888     -2.637001
  H      -0.827025     -0.553363     -3.050804
  C      -1.841315     -0.502690      1.351372
  C      -2.389146     -1.410294      2.238483
  C      -1.754730     -1.657589      3.451605
  C      -0.545607     -1.049949      3.757164
  C      -0.006854     -0.121212      2.881749
  C      -0.675455      0.181454      1.701723
  H      -0.040463     -1.278252      4.685601
  H       0.915280      0.392087      3.120290
  H      -3.305812     -1.929147      1.988963
  H      -2.202002     -2.346090      4.155542
  H      -0.484578      1.235748      1.310894
  C      -2.328022     -0.305679     -0.049966
  H      -2.600460      0.739130     -0.225975
  H      -3.208841     -0.918809     -0.272339
  O       1.324578      0.509184     -2.013567
  C       2.105533     -0.496467     -2.265797
  O       2.188220     -1.504327     -1.589485
  C       2.944650     -0.295473     -3.512800
  H       3.722659      0.441199     -3.307916
  H       2.351666      0.092276     -4.340622
  H       3.420671     -1.226589     -3.811028
