! EnGrad PBEh-3c
%output 
xyzfile=True 
end 
%scf 
maxiter 250 
end
%output
Print[P_Hirshfeld] = 1
end
% maxcore
4000
%pal nprocs 6
end
*xyz 0 1
C   -1.89600674   1.76999388   0.26214338 
C   -3.11253974   1.15629863   0.50669194 
H   -4.15084454  -0.70508159   0.71852442 
H    3.32427142   0.68307920  -1.68523318 
C   -0.76634944   0.98956875   0.07538806 
C   -3.19409229  -0.22853963   0.55337282 
C   -0.83357802  -0.40244230   0.17422542 
C    0.52236067   1.48705909  -0.27071776 
C   -2.05741499  -1.01282960   0.39436466 
H   -1.81486557   2.84715164   0.20010404 
H   -3.99979296   1.75898292   0.64671751 
N    0.40801886  -1.08971598   0.00340822 
H   -2.14442112  -2.09131120   0.44063636 
C    1.60328088   0.88916206  -0.49914103 
C    2.98552184   0.52125040  -0.66386819 
H    3.61300247   1.10626545   0.00812778 
H    3.13257688  -0.53096328  -0.41959516 
C    0.31857496  -2.24362801  -0.88517722 
H   -0.19840001  -3.09117797  -0.41793442 
C    1.04656487  -1.43346056   1.27144927 
H   -0.21661050  -1.97488874  -1.79320014 
H    1.31689683  -2.58422464  -1.16131822 
Au   1.13039450   3.34575439  -0.86129642 
H    0.46080033  -2.15501730   1.85166659 
H    2.02562549  -1.87477966   1.07815442 
H    1.18940308  -0.53801302   1.87328066 
Cl   1.33890460   5.51456221  -1.52109860 
*
