! EnGrad PBEh-3c
%output 
xyzfile=True 
end 
%scf 
maxiter 250 
end
%output
Print[P_Hirshfeld] = 1
end
% maxcore
4000
%pal nprocs 6
end
*xyz 0 1
C   -1.97317617   1.78157901   0.25756672 
C   -3.13717497   1.14343291   0.51339383 
H   -4.13717688  -0.71940207   0.73017278 
H    3.28582288   0.63172996  -1.70805068 
C   -1.02397330   1.07547569   0.12763711 
C   -3.18541686  -0.22532832   0.56364087 
C   -0.54183907  -0.53341467   0.14934361 
C    0.98176066   1.58062377  -0.37448192 
C   -2.04789348  -0.98232556   0.41460009 
H   -1.85194986   2.85245028   0.18809882 
H   -4.00071725   1.73262040   0.64479242 
N    0.18033638  -1.52320620   0.01238853 
H   -2.09911747  -2.08648793   0.45506257 
C    1.27900839   1.01097593  -0.47755696 
C    3.19262587   0.34771911  -0.67643519 
H    3.53591430   1.08892323   0.01428034 
H    3.18332928  -0.59512850  -0.44637112 
C    0.30630715  -2.11781051  -0.74186449 
H   -0.16243779  -3.04214841  -0.44339880 
C    0.94568705  -1.38530895   1.18224246 
H   -0.16955320  -1.90797284  -1.81283582 
H    1.36715257  -2.51118269  -1.16043464 
Au   1.00409775   3.49954949  -0.86907505 
H    0.45382333  -2.15804961   1.83430368 
H    2.03958802  -1.86617589   1.09073331 
H    1.19205407  -0.53296349   1.93254017 
Cl   1.40024513   5.53548166  -1.53611022 
*
