! EnGrad PBEh-3c
%output 
xyzfile=True 
end 
%scf 
maxiter 250 
end
%output
Print[P_Hirshfeld] = 1
end
% maxcore
4000
%pal nprocs 6
end
*xyz 0 1
C   -1.89682531   1.77011677   0.26209483 
C   -3.11280106   1.15616215   0.50676304 
H   -4.15069956  -0.70523350   0.71864798 
H    3.32386357   0.68253451  -1.68547522 
C   -0.76908219   0.99048002   0.07594230 
C   -3.19400026  -0.22850557   0.55348173 
C   -0.83048338  -0.40383160   0.17396148 
C    0.52723378   1.48805159  -0.27181845 
C   -2.05731399  -1.01250603   0.39457931 
H   -1.81525894   2.84720785   0.19997669 
H   -3.99980276   1.75870327   0.64669709 
N    0.40560370  -1.09431425   0.00350348 
H   -2.14394056  -2.09126003   0.44078938 
C    1.59984114   0.89045421  -0.49891208 
C    2.98771871   0.51940966  -0.66400150 
H    3.61218475   1.10608149   0.00819304 
H    3.13311524  -0.53164392  -0.41987919 
C    0.31844483  -2.24229339  -0.88365703 
H   -0.19801854  -3.09065789  -0.41820453 
C    1.04549480  -1.43294979   1.27050301 
H   -0.21611134  -1.97417892  -1.79340843 
H    1.31742992  -2.58344985  -1.16130884 
Au   1.12905480   3.34738578  -0.86137893 
H    0.46072632  -2.15504947   1.85148241 
H    2.02577360  -1.87468839   1.07828785 
H    1.18943120  -0.53795946   1.87390926 
Cl   1.33955527   5.51478412  -1.52125783 
*
