! EnGrad PBEh-3c
%output 
xyzfile=True 
end 
%scf 
maxiter 250 
end
%output
Print[P_Hirshfeld] = 1
end
% maxcore
4000
*xyz 0 1
Pd   0.27162359   0.26982393   0.04209922 
O    1.83725707   1.40918747   0.60505372 
C    1.66405679   2.59719556   0.44258387 
O    0.44048366   3.09797719   0.02264191 
C    2.88756007   3.52909836   0.66849107 
H    2.52216367   4.45584672   1.10686015 
H    3.35836272   3.80950713  -0.28179574 
H    3.66925338   3.10968077   1.31528810 
N   -1.32737078  -0.92534003  -0.94413886 
C   -0.94377143  -2.26865634  -1.44975871 
H   -0.16185563  -2.16812607  -2.19709760 
H   -1.87273877  -2.70895382  -1.84097269 
H   -0.59748930  -2.86880772  -0.60521418 
C   -1.86615162  -0.14126345  -2.07823190 
H   -1.99365461   0.90558436  -1.80171246 
H   -2.83603125  -0.57160435  -2.35189574 
H   -1.16168141  -0.19043406  -2.91103337 
C   -1.81353918  -1.05355717   1.51088607 
C   -2.26010183  -2.00393085   2.44314514 
C   -1.85387916  -1.92788081   3.76904775 
C   -1.09395061  -0.83166843   4.14774844 
C   -0.66505224   0.11837849   3.19695407 
C   -0.76198316  -0.14202809   1.80072045 
H   -0.77883188  -0.74745032   5.19040415 
H   -0.14594211   0.97199183   3.60083663 
H   -2.94203880  -2.80011117   2.15648510 
H   -2.25833138  -2.60138998   4.51580884 
H   -0.61695502   3.59379685   0.71810333 
C   -2.36392061  -1.06028335   0.12318880 
H   -2.99659727  -0.17625227   0.06946958 
H   -2.97733784  -1.93710048  -0.12480156 
O    1.41215262   0.55526470  -1.92711854 
C    2.20316907  -0.37629327  -2.36406621 
O    2.16410195  -1.58019894  -2.11891794 
C    3.24467640   0.08640173  -3.43107681 
H    3.61168842  -0.77217564  -4.00239659 
H    4.10269700   0.49701213  -2.89494911 
H    2.90117257   0.85928926  -4.12400799 
*
