! EnGrad PBEh-3c
%output 
xyzfile=True 
end 
%scf 
maxiter 250 
end
%output
Print[P_Hirshfeld] = 1
end
% maxcore
4000
*xyz 0 1
Pd   0.22621870   0.29108419   0.07831831 
O    1.79143760   1.45150831   0.59568281 
C    1.60183542   2.62930114   0.45716636 
O    0.29586876   3.14944209   0.10664494 
C    2.83838299   3.54661823   0.65133189 
H    2.47826593   4.46888178   1.09077013 
H    3.32357340   3.83206575  -0.29146493 
H    3.63931389   3.14021109   1.30523701 
N   -1.34498435  -0.89111737  -0.94553579 
C   -0.98148461  -2.21924341  -1.53579305 
H   -0.20522843  -2.07597725  -2.30119933 
H   -1.94211300  -2.62957150  -1.90924911 
H   -0.62289389  -2.87109934  -0.72982480 
C   -1.90233765  -0.05528690  -2.03980381 
H   -2.02543023   0.98328996  -1.71153274 
H   -2.88692993  -0.46555738  -2.31626756 
H   -1.19849776  -0.05440925  -2.88171116 
C   -1.78046636  -1.05687953   1.50747481 
C   -2.16367924  -2.04803525   2.42218463 
C   -1.73965213  -1.98386969   3.74478003 
C   -1.10098376  -0.79689212   4.13520512 
C   -0.72394973   0.19454500   3.19235186 
C   -0.75314308  -0.11514589   1.80466796 
H   -0.77415556  -0.72338735   5.17547129 
H   -0.29947070   1.12029423   3.60891277 
H   -2.76405493  -2.91687065   2.10747952 
H   -2.08561157  -2.71826493   4.48091276 
H   -0.50792379   3.41000668   0.68974237 
C   -2.35766994  -1.07915656   0.12065379 
H   -3.01739053  -0.21147681   0.08794227 
H   -2.93824773  -1.98472803  -0.13233051 
O    1.43297149   0.49495645  -1.90930458 
C    2.22093133  -0.44383651  -2.33837154 
O    2.15842038  -1.64198520  -2.10915438 
C    3.30214720  -0.00432492  -3.37050375 
H    3.66881274  -0.88081516  -3.92085887 
H    4.16020820   0.40994621  -2.83709882 
H    2.97940408   0.76122300  -4.08714878 
*
