! EnGrad PBEh-3c
%output 
xyzfile=True 
end 
%scf 
maxiter 250 
end
%output
Print[P_Hirshfeld] = 1
end
% maxcore
4000
*xyz 0 1
Pd   0.17531209   0.28097003   0.07278551 
O    1.72020999   1.51888266   0.59351576 
C    1.50782015   2.67528797   0.48677174 
O    0.23060362   3.17928915   0.18791384 
C    2.76589303   3.57722820   0.63160058 
H    2.43405517   4.49075456   1.07667575 
H    3.27676387   3.84892949  -0.30193602 
H    3.58492424   3.16592445   1.28456500 
N   -1.35094713  -0.84201823  -0.94023872 
C   -1.02649821  -2.15155054  -1.61038135 
H   -0.26165378  -1.98597277  -2.40159197 
H   -1.99919334  -2.54670874  -1.98590656 
H   -0.64781667  -2.86822934  -0.86973326 
C   -1.93499466   0.03320040  -1.99274578 
H   -2.06065852   1.05819248  -1.61661112 
H   -2.93345558  -0.34991543  -2.28427556 
H   -1.24550875   0.08788581  -2.84462395 
C   -1.72662758  -1.09553309   1.49735351 
C   -2.06558154  -2.09996069   2.40039549 
C   -1.62706124  -2.01346011   3.72090414 
C   -1.10676428  -0.77203643   4.11673015 
C   -0.76351715   0.25770834   3.18548716 
C   -0.78421361  -0.07591529   1.81887664 
H   -0.77904650  -0.68713576   5.15447241 
H   -0.45411003   1.25898022   3.60517265 
H   -2.57138548  -3.02136933   2.05554259 
H   -1.88951097  -2.83280205   4.43462972 
H   -0.37432292   3.21250949   0.67383192 
C   -2.34700009  -1.09645671   0.11456100 
H   -3.04534036  -0.25152502   0.10233902 
H   -2.89685119  -2.02750265  -0.13047865 
O    1.45876579   0.41567156  -1.87327219 
C    2.22799770  -0.49182643  -2.33469737 
O    2.14437431  -1.71681308  -2.08750714 
C    3.36104267  -0.10010044  -3.29950024 
H    3.72498214  -0.98936068  -3.83036712 
H    4.22034852   0.31975288  -2.77353932 
H    3.05954711   0.65480410  -4.04173192 
*
