! EnGrad PBEh-3c
%output 
xyzfile=True 
end 
%scf 
maxiter 250 
end
%output
Print[P_Hirshfeld] = 1
end
% maxcore
4000
*xyz 0 1
Pd   0.15541610   0.21501230   0.01967830 
O    1.64811169   1.54070343   0.61585052 
C    1.50295557   2.72707606   0.52830965 
O    0.41678412   3.23757628   0.09805179 
C    2.72484315   3.59761479   0.63061494 
H    2.44740812   4.52808731   1.08576730 
H    3.25241534   3.83589986  -0.30802373 
H    3.52933968   3.15135555   1.25594891 
N   -1.33727937  -0.82849771  -0.92659174 
C   -1.01840610  -2.13425417  -1.57368123 
H   -0.26354859  -2.01517988  -2.36165444 
H   -1.95631483  -2.55456548  -1.99024419 
H   -0.64351165  -2.86507344  -0.85550084 
C   -1.92117117   0.02272856  -1.98936381 
H   -2.05755275   1.04410316  -1.63894213 
H   -2.91119749  -0.35730427  -2.29836873 
H   -1.25055471   0.06882740  -2.84654698 
C   -1.68814690  -1.16595510   1.47921154 
C   -2.08553768  -2.10930423   2.40200179 
C   -1.66996042  -1.99122507   3.72718448 
C   -1.08718274  -0.78217505   4.09811901 
C   -0.69880399   0.22147588   3.16401386 
C   -0.82771320  -0.08111194   1.80251416 
H   -0.78902866  -0.67430437   5.13204417 
H   -0.40198958   1.22439171   3.56342187 
H   -2.62454954  -2.99254040   2.06878355 
H   -1.91108828  -2.81791205   4.42347802 
H   -0.31597117   3.14397872   0.75103283 
C   -2.34430608  -1.08911677   0.11866118 
H   -3.05236570  -0.24467189   0.10268666 
H   -2.92238830  -2.00013217  -0.11814517 
O    1.43191777   0.40954521  -1.84886514 
C    2.21559836  -0.50467209  -2.32598893 
O    2.18816467  -1.67504316  -1.98911452 
C    3.33448868  -0.08433566  -3.31001481 
H    3.69527593  -0.96532505  -3.84763532 
H    4.21161919   0.33286334  -2.80127148 
H    3.02031026   0.66089657  -4.04056740 
*
