! EnGrad PBEh-3c
%output 
xyzfile=True 
end 
%scf 
maxiter 250 
end
%output
Print[P_Hirshfeld] = 1
end
% maxcore
4000
*xyz 0 1
Pd   0.14378372   0.19290176  -0.01248990 
O    1.56003569   1.53747589   0.66010178 
C    1.53114248   2.77324045   0.53656289 
O    0.43639240   3.35577940   0.08036809 
C    2.69068550   3.62750720   0.63819236 
H    2.43308970   4.58056645   1.08755773 
H    3.19474579   3.83132881  -0.31923617 
H    3.45015614   3.15600645   1.22157637 
N   -1.34990176  -0.81664484  -0.93285072 
C   -1.02656423  -2.09847128  -1.59551466 
H   -0.29426894  -1.98688850  -2.37760037 
H   -1.95066707  -2.50957654  -2.02964561 
H   -0.65209184  -2.85635207  -0.90966001 
C   -1.93319931   0.06637700  -1.96811238 
H   -2.07379858   1.07549786  -1.60470309 
H   -2.91221653  -0.30629966  -2.28890593 
H   -1.27465429   0.12586420  -2.82935199 
C   -1.65278018  -1.20969058   1.45986524 
C   -2.04155842  -2.15200387   2.39218143 
C   -1.65004155  -2.00016363   3.71715242 
C   -1.06535951  -0.77553988   4.07504631 
C   -0.68580675   0.23046239   3.14707494 
C   -0.86169654  -0.07805287   1.76904358 
H   -0.79924994  -0.64337078   5.10971266 
H   -0.43451633   1.24938722   3.52007777 
H   -2.57367159  -3.02937271   2.05473253 
H   -1.82536412  -2.84945342   4.38948806 
H   -0.21421768   2.98488244   0.78538557 
C   -2.34092528  -1.09795706   0.13281767 
H   -3.06516332  -0.26495809   0.11874827 
H   -2.91834192  -1.99780907  -0.11263570 
O    1.41773746   0.37305531  -1.82461006 
C    2.21826635  -0.53537417  -2.28085891 
O    2.21716604  -1.69700884  -1.90485382 
C    3.33802316  -0.11995348  -3.28775492 
H    3.69835402  -1.00364852  -3.81490148 
H    4.22776269   0.29482204  -2.78669682 
H    3.02863781   0.61409700  -4.01875665 
*
