! EnGrad PBEh-3c
%output 
xyzfile=True 
end 
%scf 
maxiter 250 
end
%output
Print[P_Hirshfeld] = 1
end
% maxcore
4000
*xyz 0 1
Pd   0.16455493   0.19591978  -0.08175411 
O    1.44478887   1.60374632   0.78595730 
C    1.55133456   2.76560693   0.45886475 
O    0.39233110   3.51221575   0.20447236 
C    2.67892186   3.71456947   0.64489999 
H    2.40525105   4.67565962   1.08826396 
H    3.07072697   3.82312634  -0.34396941 
H    3.35303988   3.14490570   1.19957041 
N   -1.38934471  -0.81160856  -0.96162260 
C   -1.05086487  -2.05423795  -1.64010241 
H   -0.33671157  -1.92010076  -2.41699679 
H   -1.94336602  -2.42330406  -2.10594803 
H   -0.66172472  -2.82666719  -0.99445674 
C   -1.95869018   0.14270561  -1.93339355 
H   -2.10515425   1.13930755  -1.52612984 
H   -2.91642083  -0.21935753  -2.27512878 
H   -1.31274590   0.22772625  -2.79706361 
C   -1.63217223  -1.24860797   1.43409148 
C   -1.94533410  -2.22165036   2.36350927 
C   -1.59335697  -2.00411749   3.68435303 
C   -1.02068703  -0.77200112   4.03291713 
C   -0.69660845   0.21829594   3.08395529 
C   -0.91033361  -0.07578844   1.71298228 
H   -0.82337450  -0.57539575   5.08256172 
H   -0.47872869   1.24213174   3.42550642 
H   -2.48256464  -3.10246099   2.03430831 
H   -1.65965750  -2.87081899   4.33593373 
H   -0.03500335   2.74820505   0.72889911 
C   -2.33928052  -1.12265803   0.14309599 
H   -3.07615029  -0.31400347   0.16600928 
H   -2.91067966  -2.00040682  -0.10502696 
O    1.38960708   0.31651915  -1.78734682 
C    2.23818508  -0.60193027  -2.17067972 
O    2.26258314  -1.73852895  -1.76651584 
C    3.33493797  -0.18773073  -3.22791699 
H    3.69625935  -1.07580850  -3.75015575 
H    4.23515530   0.22161529  -2.74800549 
H    3.03729338   0.53718444  -3.98210858 
*
