! EnGrad PBEh-3c
%output 
xyzfile=True 
end 
%scf 
maxiter 250 
end
%output
Print[P_Hirshfeld] = 1
end
% maxcore
4000
*xyz 0 1
Pd   0.36096460   0.17622491  -0.11423658 
O    1.93434539   1.29658725   0.64844923 
C    1.78030225   2.59556489   0.42012972 
O    0.70377574   3.02194530  -0.10456046 
C    2.95953953   3.50116280   0.69531189 
H    2.60078363   4.43491750   1.13744434 
H    3.41367056   3.76431946  -0.26060202 
H    3.70112817   3.05625515   1.32139685 
N   -1.27564271  -0.96221915  -0.93080958 
C   -0.88870463  -2.33214965  -1.28657581 
H   -0.11008680  -2.33755244  -2.00897187 
H   -1.73748881  -2.85351795  -1.73234022 
H   -0.54794768  -2.86000473  -0.39850678 
C   -1.79740727  -0.29386781  -2.13104022 
H   -1.93936484   0.75868335  -1.95412600 
H   -2.74133555  -0.75174647  -2.42463926 
H   -1.10994630  -0.43118746  -2.95858700 
C   -1.84869330  -1.09628882   1.50054613 
C   -2.43086143  -1.92152489   2.47768621 
C   -2.04984515  -1.80151932   3.81687138 
C   -1.08575355  -0.89536927   4.17141353 
C   -0.53108190  -0.04675505   3.21697965 
C   -0.87542562  -0.15620347   1.83572647 
H   -0.79740087  -0.77814118   5.21594754 
H    0.10831786   0.69312515   3.59188696 
H   -3.23493494  -2.57658856   2.24249855 
H   -2.53924348  -2.38780552   4.57002950 
H   -0.78800215   3.90340872   0.75073692 
C   -2.36527953  -1.02314303   0.12209488 
H   -2.96805028  -0.12064066   0.02927900 
H   -3.04353625  -1.84893676  -0.09127057 
O    1.39204835   0.64545122  -1.92753852 
C    2.15145124  -0.27633846  -2.45519594 
O    2.15581321  -1.43585338  -2.15326081 
C    3.14657060   0.24631045  -3.53262158 
H    3.51546964  -0.57467349  -4.13629229 
H    4.00770289   0.65147588  -2.98637557 
H    2.77483769   1.01998023  -4.17747341 
*
