! EnGrad PBEh-3c
%output 
xyzfile=True 
end 
%scf 
maxiter 250 
end
%output
Print[P_Hirshfeld] = 1
end
% maxcore
4000
*xyz 0 1
Pd   0.18022955   0.21899769  -0.07248371 
O    1.49188853   1.62434294   0.79658383 
C    1.53506149   2.79421094   0.46186134 
O    0.39670928   3.47177005   0.26833919 
C    2.69418438   3.70046594   0.63291080 
H    2.41105516   4.67178464   1.08461574 
H    3.07789002   3.83489329  -0.36335303 
H    3.39705929   3.13360856   1.22974699 
N   -1.38666023  -0.81334377  -0.96050897 
C   -1.04563028  -2.06973041  -1.63876845 
H   -0.31185951  -1.91771219  -2.41296824 
H   -1.94981096  -2.44026531  -2.10992814 
H   -0.65463032  -2.81975550  -0.96020858 
C   -1.95751289   0.12944161  -1.94147103 
H   -2.10136941   1.13049748  -1.52558630 
H   -2.92170911  -0.23662456  -2.28766443 
H   -1.29996425   0.21049351  -2.80137873 
C   -1.66826856  -1.22317464   1.43489627 
C   -1.95633428  -2.20805495   2.35553849 
C   -1.58091703  -1.99883987   3.67494817 
C   -1.02130120  -0.77986309   4.03370383 
C   -0.71163528   0.18967890   3.05965919 
C   -0.88342023  -0.09255511   1.70342645 
H   -0.82532976  -0.56955342   5.08242097 
H   -0.43412051   1.18451384   3.40454231 
H   -2.51115564  -3.09533214   2.04840534 
H   -1.67996158  -2.83178667   4.35408744 
H   -0.09317632   2.77584413   0.66465304 
C   -2.34479165  -1.12608047   0.12185306 
H   -3.06572254  -0.31123936   0.18130713 
H   -2.92737267  -2.01082154  -0.11191500 
O    1.39262519   0.32455345  -1.80145187 
C    2.24450082  -0.58749432  -2.15770925 
O    2.27210557  -1.73860517  -1.74353290 
C    3.31455512  -0.17933749  -3.22159346 
H    3.67432860  -1.06356831  -3.75633624 
H    4.21209206   0.23136332  -2.74920796 
H    3.00964388   0.55204355  -3.98104777 
*
