! EnGrad PBEh-3c
%output 
xyzfile=True 
end 
%scf 
maxiter 250 
end
%output
Print[P_Hirshfeld] = 1
end
% maxcore
4000
*xyz 0 1
Pd   0.18097025   0.23179395  -0.05694333 
O    1.53051391   1.64675365   0.79394273 
C    1.51088768   2.84771371   0.50969769 
O    0.44152694   3.46708399   0.30342494 
C    2.70335180   3.68569443   0.62372937 
H    2.42061456   4.66101581   1.07423812 
H    3.08940422   3.85213365  -0.38633477 
H    3.42540232   3.13516370   1.24438951 
N   -1.37618966  -0.80690458  -0.95651303 
C   -1.03971610  -2.07482840  -1.64209340 
H   -0.28927483  -1.91287221  -2.40932269 
H   -1.95606924  -2.45649820  -2.11958207 
H   -0.65033817  -2.81279313  -0.93307395 
C   -1.95867196   0.12154583  -1.94739596 
H   -2.09930848   1.12035640  -1.52296666 
H   -2.92978275  -0.24637731  -2.30079115 
H   -1.28975090   0.20103386  -2.80290055 
C   -1.69211893  -1.21606631   1.42369574 
C   -1.97217420  -2.19893246   2.34882672 
C   -1.56242635  -1.99927758   3.66431936 
C   -1.02540417  -0.78340355   4.02696982 
C   -0.71295211   0.16603333   3.03948387 
C   -0.86047148  -0.11180657   1.68703364 
H   -0.82663034  -0.56080394   5.07368660 
H   -0.38687768   1.13845941   3.37818009 
H   -2.53172811  -3.08978488   2.06192952 
H   -1.69338603  -2.80460409   4.37368020 
H   -0.17214315   2.75150863   0.62113212 
C   -2.35361349  -1.13104553   0.10316026 
H   -3.06057004  -0.30574037   0.19492635 
H   -2.94623222  -2.02371926  -0.12138919 
O    1.39564342   0.32714570  -1.80908910 
C    2.24866982  -0.58803141  -2.14691654 
O    2.28904223  -1.72580544  -1.70203782 
C    3.29470698  -0.17531613  -3.21591753 
H    3.64875616  -1.05539264  -3.75694981 
H    4.19363956   0.23853454  -2.74913916 
H    2.97789713   0.55730750  -3.96958361 
*
