! EnGrad PBEh-3c
%output 
xyzfile=True 
end 
%scf 
maxiter 250 
end
%output
Print[P_Hirshfeld] = 1
end
% maxcore
4000
*xyz 0 1
Pd   0.19670417   0.25253574  -0.02119140 
O    1.62451312   1.63456474   0.76647893 
C    1.54602951   2.85080084   0.61733830 
O    0.41514636   3.46678497   0.32260293 
C    2.75870267   3.67959525   0.62143923 
H    2.46466821   4.61824076   1.05323175 
H    3.13296121   3.87290652  -0.40056730 
H    3.48734563   3.15407640   1.25360107 
N   -1.36500941  -0.81389959  -0.95958617 
C   -1.01789110  -2.09623527  -1.62716114 
H   -0.24348046  -1.92918773  -2.37790062 
H   -1.93978151  -2.50314817  -2.10586025 
H   -0.64299343  -2.79504325  -0.87004258 
C   -1.95202831   0.08462290  -1.97254361 
H   -2.08997144   1.07739561  -1.54461128 
H   -2.92729836  -0.28971377  -2.32634797 
H   -1.26379750   0.15479292  -2.81130059 
C   -1.72410680  -1.21040849   1.40331696 
C   -2.02559410  -2.16463301   2.35291932 
C   -1.56986299  -2.00226378   3.65738941 
C   -1.03554265  -0.78631256   4.01731536 
C   -0.68420312   0.12594318   3.01911388 
C   -0.83541485  -0.15340524   1.66595031 
H   -0.82697377  -0.56007389   5.05854984 
H   -0.26144860   1.05360154   3.35018529 
H   -2.60050816  -3.04642382   2.09424098 
H   -1.76498220  -2.74157964   4.42172583 
H   -0.34712657   2.78833966   0.54926458 
C   -2.37768075  -1.13362608   0.08149730 
H   -3.05459202  -0.28458769   0.19421503 
H   -2.97667518  -2.03142643  -0.14623151 
O    1.39565184   0.35330071  -1.81652301 
C    2.24477179  -0.56054114  -2.15102337 
O    2.30715967  -1.68622867  -1.66072478 
C    3.25825862  -0.14843424  -3.22696974 
H    3.59698719  -1.02015274  -3.77660921 
H    4.14829768   0.27388178  -2.75551191 
H    2.90620205   0.58827422  -3.94896217 
*
