! EnGrad PBEh-3c
%output 
xyzfile=True 
end 
%scf 
maxiter 250 
end
%output
Print[P_Hirshfeld] = 1
end
% maxcore
4000
*xyz 0 1
Pd   0.19828426   0.24338300  -0.02559192 
O    1.61775290   1.60090677   0.76509151 
C    1.53504893   2.82798590   0.59514551 
O    0.38487349   3.45384135   0.31363630 
C    2.76651555   3.68833607   0.63241826 
H    2.47299326   4.62351217   1.05698838 
H    3.13430156   3.86345400  -0.38297480 
H    3.48183023   3.16761981   1.23682334 
N   -1.37504724  -0.82071165  -0.96466480 
C   -1.01702699  -2.09255797  -1.62332351 
H   -0.25178202  -1.93442684  -2.37403171 
H   -1.92604562  -2.49913649  -2.09586393 
H   -0.64603322  -2.79340573  -0.88295704 
C   -1.95065755   0.08390750  -1.97312390 
H   -2.09217981   1.07516739  -1.54934585 
H   -2.91991701  -0.28883163  -2.32195123 
H   -1.26658368   0.15746282  -2.81104248 
C   -1.70682405  -1.22154814   1.40411539 
C   -2.02445098  -2.16737210   2.36032072 
C   -1.58642961  -2.00147172   3.66611530 
C   -1.03378168  -0.78315442   4.01485157 
C   -0.66765360   0.13799877   3.02758310 
C   -0.85192804  -0.14838957   1.67403666 
H   -0.82644300  -0.56414199   5.05711975 
H   -0.25987460   1.07550525   3.36141196 
H   -2.59566819  -3.04126042   2.09010655 
H   -1.76659114  -2.75204083   4.41826937 
H   -0.32073549   2.81054020   0.56076506 
C   -2.37723089  -1.13112414   0.09124178 
H   -3.06185561  -0.28453828   0.17856742 
H   -2.96741206  -2.02325962  -0.14961659 
O    1.39117072   0.35836131  -1.80562527 
C    2.23906234  -0.56771178  -2.15276763 
O    2.29797459  -1.67225190  -1.68509489 
C    3.26519728  -0.14844493  -3.23070134 
H    3.60363408  -1.02391286  -3.77722425 
H    4.15105134   0.27460141  -2.75211324 
H    2.90994669   0.58761553  -3.94575785 
*
