! EnGrad PBEh-3c
%output 
xyzfile=True 
end 
%scf 
maxiter 250 
end
%output
Print[P_Hirshfeld] = 1
end
% maxcore
4000
*xyz 0 1
Pd   0.20546977   0.24400367  -0.02383128 
O    1.63338167   1.60460637   0.76405903 
C    1.53091318   2.80395882   0.59295540 
O    0.37642695   3.43318516   0.33467651 
C    2.77078714   3.68510253   0.63321116 
H    2.48765720   4.62787082   1.05810590 
H    3.14155718   3.86220542  -0.37848008 
H    3.50121594   3.17614189   1.23572566 
N   -1.37985265  -0.82607878  -0.96823785 
C   -1.01329688  -2.09425359  -1.61994952 
H   -0.24481112  -1.93805537  -2.36635993 
H   -1.91421192  -2.50647888  -2.08982508 
H   -0.64415007  -2.78777855  -0.87431168 
C   -1.94947074   0.07584965  -1.97792204 
H   -2.09280765   1.06608990  -1.55378401 
H   -2.91588992  -0.29772314  -2.32666428 
H   -1.26158319   0.15079523  -2.81313214 
C   -1.71078408  -1.22392651   1.40282893 
C   -2.03117152  -2.16241630   2.36233354 
C   -1.59536962  -1.99580839   3.66823057 
C   -1.03128931  -0.78296454   4.01062834 
C   -0.65593004   0.13021081   3.02243018 
C   -0.85084223  -0.15171604   1.67203660 
H   -0.82740338  -0.56326940   5.05277709 
H   -0.22520277   1.06270822   3.35664051 
H   -2.60885958  -3.03152351   2.09478877 
H   -1.78036096  -2.74015415   4.42748776 
H   -0.34955903   2.82918647   0.53872417 
C   -2.38085575  -1.13149677   0.08790885 
H   -3.06458367  -0.28257304   0.17110002 
H   -2.96954465  -2.02134933  -0.15837765 
O    1.38988181   0.36543624  -1.80116275 
C    2.23384023  -0.55203654  -2.15313961 
O    2.29687042  -1.66819072  -1.68308673 
C    3.25698010  -0.14459276  -3.22963319 
H    3.59457385  -1.02021331  -3.78031512 
H    4.13961238   0.28150142  -2.74837172 
H    2.89356801   0.59459193  -3.93858733 
*
