! EnGrad PBEh-3c
%output 
xyzfile=True 
end 
%scf 
maxiter 250 
end
%output
Print[P_Hirshfeld] = 1
end
% maxcore
4000
*xyz 0 1
Pd   0.21923374   0.23022339  -0.01866979 
O    1.67611069   1.57989952   0.75155191 
C    1.54149818   2.73946748   0.58858300 
O    0.37017485   3.36092781   0.40919195 
C    2.75255864   3.66280355   0.63571016 
H    2.54321254   4.64394252   1.06532692 
H    3.17304642   3.85152263  -0.35718762 
H    3.57274776   3.21068249   1.22629899 
N   -1.38647224  -0.83573545  -0.97243139 
C   -0.99616314  -2.09731998  -1.60239546 
H   -0.21870708  -1.95209034  -2.34040969 
H   -1.87433511  -2.54005394  -2.06866186 
H   -0.63312111  -2.77377137  -0.84331576 
C   -1.94342693   0.04688283  -1.99504469 
H   -2.09871490   1.03376018  -1.57296549 
H   -2.90415634  -0.33315239  -2.34792983 
H   -1.24364329   0.12775901  -2.82243709 
C   -1.72140143  -1.22536969   1.40284626 
C   -2.05705081  -2.14697402   2.37137117 
C   -1.63729243  -1.96920159   3.68347432 
C   -1.01899432  -0.77857832   4.00153111 
C   -0.60338358   0.11595710   3.01141305 
C   -0.83946687  -0.15698297   1.66654391 
H   -0.82662791  -0.56212578   5.03929313 
H   -0.09615827   1.02141369   3.34345034 
H   -2.65846727  -3.00045308   2.10709777 
H   -1.83580268  -2.70146322   4.45842676 
H   -0.47181165   2.89481196   0.46012020 
C   -2.38968698  -1.13018900   0.07500038 
H   -3.07850314  -0.27883418   0.13201363 
H   -2.97467682  -2.01481416  -0.19379223 
O    1.38463604   0.40017351  -1.78091534 
C    2.21290151  -0.50181028  -2.15908390 
O    2.27827172  -1.65090614  -1.69300369 
C    3.22656719  -0.12625901  -3.22629475 
H    3.56407408  -1.00457339  -3.78750963 
H    4.10032280   0.30803024  -2.73159987 
H    2.83809732   0.62229991  -3.91239906 
*
