! EnGrad PBEh-3c
%output 
xyzfile=True 
end 
%scf 
maxiter 250 
end
%output
Print[P_Hirshfeld] = 1
end
% maxcore
4000
*xyz 0 1
Pd   0.21467941   0.21450583  -0.02547444 
O    1.67447304   1.54015939   0.75491143 
C    1.54592576   2.74179709   0.58632417 
O    0.38407453   3.36222291   0.45035885 
C    2.73872055   3.66160886   0.64046968 
H    2.55642898   4.65603224   1.06845418 
H    3.16930064   3.84111691  -0.35051247 
H    3.57906793   3.22317210   1.21438914 
N   -1.38115451  -0.82975815  -0.96955586 
C   -0.98860583  -2.09442220  -1.59743635 
H   -0.21106326  -1.94910052  -2.33698837 
H   -1.86417330  -2.54862786  -2.07224051 
H   -0.62450425  -2.77216626  -0.83799103 
C   -1.94336525   0.04639634  -1.99783222 
H   -2.10792857   1.03181234  -1.57365158 
H   -2.90307881  -0.33975509  -2.35895335 
H   -1.24129862   0.13119161  -2.82375018 
C   -1.72443656  -1.21984857   1.40467646 
C   -2.05829056  -2.15003711   2.37171129 
C   -1.65092380  -1.95402106   3.68770323 
C   -1.00702921  -0.77369621   3.99715790 
C   -0.58069027   0.11506103   3.00300340 
C   -0.82960036  -0.15676650   1.65955590 
H   -0.82345697  -0.55380199   5.03652808 
H   -0.05077126   1.00521956   3.32786238 
H   -2.67005662  -3.00282149   2.10636399 
H   -1.84318556  -2.69057576   4.46118506 
H   -0.49504547   2.88889435   0.42316485 
C   -2.38882150  -1.13057450   0.07083028 
H   -3.08620169  -0.28697188   0.11652741 
H   -2.97511921  -2.01419650  -0.20784451 
O    1.37873162   0.41454968  -1.76995296 
C    2.20675648  -0.50597718  -2.14514940 
O    2.26476712  -1.64380887  -1.69117488 
C    3.21433864  -0.12127143  -3.21920774 
H    3.55209290  -1.00205443  -3.77815541 
H    4.08727510   0.31015134  -2.72102890 
H    2.82183666   0.62695471  -3.90117938 
*
