! EnGrad PBEh-3c
%output 
xyzfile=True 
end 
%scf 
maxiter 250 
end
%output
Print[P_Hirshfeld] = 1
end
% maxcore
4000
*xyz 0 1
Pd   0.20282714   0.19630533  -0.03886058 
O    1.65015543   1.53953767   0.74931954 
C    1.53295815   2.70747650   0.59661727 
O    0.39396892   3.37318814   0.48091088 
C    2.73269222   3.66742323   0.64938870 
H    2.55398547   4.66447878   1.07075732 
H    3.15065967   3.82459690  -0.34574037 
H    3.56071494   3.22997336   1.19778751 
N   -1.37027186  -0.81961261  -0.96550850 
C   -0.98243213  -2.09116724  -1.59659728 
H   -0.20831219  -1.94070387  -2.33918683 
H   -1.85805882  -2.55003527  -2.08113125 
H   -0.61230671  -2.77556465  -0.83975973 
C   -1.94552827   0.05487818  -1.99704267 
H   -2.12194322   1.03942291  -1.57124306 
H   -2.90185083  -0.34012107  -2.36888591 
H   -1.24369914   0.14460196  -2.82319289 
C   -1.72469813  -1.20980402   1.40888440 
C   -2.05556689  -2.15482686   2.36904952 
C   -1.65910054  -1.93795773   3.68840018 
C   -0.99342069  -0.76457783   3.99474364 
C   -0.56008114   0.11795173   2.99601917 
C   -0.82083288  -0.15422146   1.65392535 
H   -0.81517602  -0.54182038   5.03828289 
H   -0.01836075   0.99814232   3.31132907 
H   -2.66969074  -3.01254298   2.10075973 
H   -1.84122811  -2.68491816   4.45433171 
H   -0.45518921   2.86266529   0.40197652 
C   -2.38320883  -1.13085222   0.07078351 
H   -3.09536786  -0.30112361   0.10109599 
H   -2.96963969  -2.01405820  -0.21755361 
O    1.37763614   0.41836259  -1.76029580 
C    2.19565246  -0.51152960  -2.12896562 
O    2.24096927  -1.64709869  -1.68960448 
C    3.20588227  -0.11953790  -3.20645123 
H    3.54449346  -1.00010003  -3.75983476 
H    4.08028676   0.30632599  -2.70897783 
H    2.81648803   0.62781090  -3.89387540 
*
