! EnGrad PBEh-3c
%output 
xyzfile=True 
end 
%scf 
maxiter 250 
end
%output
Print[P_Hirshfeld] = 1
end
% maxcore
4000
*xyz 0 1
Pd   0.18905649   0.18686054  -0.05233213 
O    1.61093533   1.48164366   0.74962525 
C    1.52545190   2.77444916   0.60752830 
O    0.40457687   3.40674205   0.47335659 
C    2.71537277   3.67096139   0.65190032 
H    2.52906461   4.66525551   1.07173514 
H    3.11924609   3.80931614  -0.34960145 
H    3.52701016   3.21910612   1.19204757 
N   -1.36385856  -0.81296432  -0.96477662 
C   -0.98063351  -2.08951068  -1.60107306 
H   -0.21341073  -1.92979142  -2.34787601 
H   -1.85997174  -2.53822269  -2.09224725 
H   -0.60255894  -2.78332202  -0.85242282 
C   -1.94867926   0.07138183  -1.99141878 
H   -2.13528391   1.05711864  -1.56611871 
H   -2.89987021  -0.33065281  -2.37069570 
H   -1.25200692   0.16561060  -2.82007518 
C   -1.72269032  -1.20510410   1.41280366 
C   -2.04875909  -2.15716388   2.36563264 
C   -1.65436671  -1.93183495   3.68184014 
C   -0.98607071  -0.75605070   3.99691070 
C   -0.55358510   0.12273350   2.99319876 
C   -0.81845354  -0.15285478   1.65249229 
H   -0.80355180  -0.53083118   5.04279579 
H   -0.02175299   1.00913250   3.30062208 
H   -2.65278697  -3.02784432   2.09190997 
H   -1.82677124  -2.69027014   4.43715162 
H   -0.36542219   2.80991674   0.41848757 
C   -2.37496744  -1.13078335   0.07573974 
H   -3.10086266  -0.31507586   0.09631358 
H   -2.95812528  -2.01419776  -0.21451170 
O    1.37441590   0.41113021  -1.75583824 
C    2.19228182  -0.51931883  -2.12292826 
O    2.21852657  -1.66810966  -1.68001928 
C    3.20517327  -0.12232868  -3.19268539 
H    3.54663448  -1.00137979  -3.74004580 
H    4.08689916   0.29636357  -2.70306169 
H    2.82937758   0.62141541  -3.89551672 
*
