! EnGrad PBEh-3c
%output 
xyzfile=True 
end 
%scf 
maxiter 250 
end
%output
Print[P_Hirshfeld] = 1
end
% maxcore
4000
*xyz 0 1
Pd   0.35564803   0.18830564  -0.09597790 
O    1.92475091   1.31771799   0.64053366 
C    1.77206476   2.57828719   0.42313187 
O    0.68717559   3.02533914  -0.09687036 
C    2.95437273   3.50496751   0.69314265 
H    2.59617039   4.43581442   1.13527427 
H    3.41070033   3.76744848  -0.26229172 
H    3.70176729   3.05843447   1.32298822 
N   -1.28077151  -0.96198012  -0.93224401 
C   -0.89240552  -2.33062594  -1.29618612 
H   -0.11031911  -2.32637547  -2.02194005 
H   -1.74661702  -2.84376231  -1.73788574 
H   -0.55156649  -2.86051762  -0.41095254 
C   -1.80204509  -0.28515679  -2.12974817 
H   -1.94278418   0.76937030  -1.94498384 
H   -2.74737402  -0.74094011  -2.41906281 
H   -1.11227923  -0.41593295  -2.95551348 
C   -1.84999948  -1.09005197   1.50535814 
C   -2.41717852  -1.92542646   2.47733268 
C   -2.04005213  -1.81216202   3.81003039 
C   -1.08396010  -0.89023399   4.17120797 
C   -0.54593482  -0.03584158   3.21219531 
C   -0.85733314  -0.15795418   1.83065588 
H   -0.79576137  -0.77714345   5.21409616 
H    0.09565360   0.71327749   3.59261194 
H   -3.21955862  -2.59293374   2.23666907 
H   -2.52341696  -2.40156836   4.56757494 
H   -0.77770019   3.88478264   0.74929925 
C   -2.36579296  -1.02619837   0.12078255 
H   -2.96916746  -0.12351638   0.03244427 
H   -3.03924658  -1.85459188  -0.09503723 
O    1.39199314   0.64037229  -1.93082627 
C    2.15653712  -0.27389824  -2.44704769 
O    2.15742016  -1.45411629  -2.14872532 
C    3.15288602   0.23521880  -3.52458105 
H    3.52124751  -0.58759224  -4.12890471 
H    4.01241276   0.64154025  -2.98158724 
H    2.78126566   1.01208250  -4.17587752 
*
