! EnGrad PBEh-3c
%output 
xyzfile=True 
end 
%scf 
maxiter 250 
end
%output
Print[P_Hirshfeld] = 1
end
% maxcore
4000
*xyz 0 1
Pd   0.31843346   0.25521047   0.01420612 
O    1.88022195   1.33709250   0.61515838 
C    1.71663101   2.59732602   0.42664012 
O    0.57303932   3.04919935  -0.05207841 
C    2.93247909   3.51620014   0.68354160 
H    2.56285537   4.44324105   1.12221085 
H    3.38990718   3.78718193  -0.27262578 
H    3.69885390   3.07871453   1.32685286 
N   -1.31280601  -0.96462302  -0.95204021 
C   -0.90900555  -2.31971396  -1.36769792 
H   -0.12088359  -2.25366787  -2.09872161 
H   -1.80484512  -2.77987408  -1.77387477 
H   -0.57397518  -2.86474824  -0.48959614 
C   -1.83339039  -0.22117106  -2.11824116 
H   -1.96426844   0.83262907  -1.88618834 
H   -2.78527261  -0.67110492  -2.38328310 
H   -1.12758233  -0.31863399  -2.93579894 
C   -1.85070112  -1.04559857   1.52253788 
C   -2.34898513  -1.96616223   2.46181546 
C   -1.96375414  -1.87081257   3.79093459 
C   -1.08594206  -0.86898443   4.15998127 
C   -0.61655365   0.04860873   3.20977549 
C   -0.76308278  -0.16916054   1.78620386 
H   -0.78418113  -0.76870803   5.20554093 
H    0.00104789   0.83019911   3.59121111 
H   -3.10891144  -2.68936921   2.20203901 
H   -2.41830254  -2.48808755   4.54711728 
H   -0.71095980   3.76332452   0.73972081 
C   -2.37325027  -1.04454532   0.12847375 
H   -2.97612411  -0.14375438   0.05230896 
H   -3.01017702  -1.89018143  -0.11889258 
O    1.38859827   0.62104703  -1.94837645 
C    2.19147246  -0.32978127  -2.37812612 
O    2.16605899  -1.51724026  -2.13844954 
C    3.19336374   0.17321597  -3.49016413 
H    3.55763873  -0.66934950  -4.07749016 
H    4.04570908   0.57815179  -2.94765210 
H    2.82790445   0.95401090  -4.15971500 
*
