! EnGrad PBEh-3c
%output 
xyzfile=True 
end 
%scf 
maxiter 250 
end
%output
Print[P_Hirshfeld] = 1
end
% maxcore
4000
*xyz 0 1
Pd   0.34493610   0.20756370  -0.06426225 
O    1.91193358   1.32329480   0.63322957 
C    1.75610857   2.58376738   0.42414169 
O    0.65432231   3.03220713  -0.08397733 
C    2.94807081   3.50820074   0.69037906 
H    2.58658091   4.43795212   1.13151406 
H    3.40471518   3.77312861  -0.26526630 
H    3.70092869   3.06427193   1.32410062 
N   -1.28999240  -0.96274086  -0.93794220 
C   -0.89718371  -2.32748501  -1.31677026 
H   -0.11336002  -2.30544713  -2.04404105 
H   -1.76337755  -2.82537256  -1.74824491 
H   -0.55801666  -2.86173537  -0.43358952 
C   -1.81106760  -0.26673897  -2.12643596 
H   -1.94896826   0.78757886  -1.92805999 
H   -2.75828285  -0.72083857  -2.40876389 
H   -1.11668411  -0.38792617  -2.94983880 
C   -1.85020144  -1.07725639   1.51030320 
C   -2.39754956  -1.93715195   2.47286617 
C   -2.01809032  -1.82904414   3.80453381 
C   -1.08453059  -0.88411746   4.16797645 
C   -0.56626193  -0.01153319   3.21149879 
C   -0.83020388  -0.16117985   1.81786070 
H   -0.79242808  -0.77471538   5.21163360 
H    0.06842205   0.74693251   3.59220872 
H   -3.18770965  -2.62069198   2.22670106 
H   -2.49316056  -2.42647227   4.56168636 
H   -0.75848946   3.84982183   0.74654217 
C   -2.36793949  -1.03147940   0.12299640 
H   -2.97116988  -0.12934174   0.03816217 
H   -3.03087912  -1.86483606  -0.10190382 
O    1.39101595   0.63480966  -1.93587796 
C    2.16659300  -0.28998375  -2.42720912 
O    2.15990678  -1.47228606  -2.14576751 
C    3.16453723   0.21737174  -3.51467439 
H    3.53172245  -0.61112546  -4.11410542 
H    4.02199686   0.62329435  -2.97181926 
H    2.79469029   0.99536702  -4.17122526 
*
