! EnGrad PBEh-3c
%output 
xyzfile=True 
end 
%scf 
maxiter 250 
end
%output
Print[P_Hirshfeld] = 1
end
% maxcore
4000
*xyz 0 1
Pd   0.35307199   0.19293689  -0.08835080 
O    1.92166855   1.31905912   0.63877715 
C    1.76822756   2.57960509   0.42337471 
O    0.67927491   3.02699078  -0.09376980 
C    2.95285722   3.50574504   0.69247805 
H    2.59386428   4.43632850   1.13437000 
H    3.40926100   3.76881446  -0.26300706 
H    3.70156562   3.05983828   1.32325573 
N   -1.28298898  -0.96216306  -0.93361433 
C   -0.89355460  -2.32987059  -1.30113627 
H   -0.11105040  -2.32134255  -2.02725498 
H   -1.75064765  -2.83933987  -1.74037695 
H   -0.55311765  -2.86081047  -0.41639637 
C   -1.80421486  -0.28072760  -2.12895164 
H   -1.94427135   0.77374916  -1.94091393 
H   -2.74999742  -0.73610602  -2.41658609 
H   -1.11333853  -0.40919778  -2.95414882 
C   -1.85004805  -1.08697484   1.50654734 
C   -2.41245807  -1.92824625   2.47625856 
C   -2.03477067  -1.81622189   3.80870855 
C   -1.08409729  -0.88876306   4.17043084 
C   -0.55082316  -0.02999581   3.21202781 
C   -0.85080899  -0.15872990   1.82757885 
H   -0.79495977  -0.77655954   5.21350395 
H    0.08910486   0.72137098   3.59251497 
H   -3.21189946  -2.59960915   2.23427192 
H   -2.51614078  -2.40755735   4.56615883 
H   -0.77308032   3.87637514   0.74863621 
C   -2.36630916  -1.02746837   0.12131495 
H   -2.96964901  -0.12491728   0.03381933 
H   -3.03723434  -1.85705544  -0.09668854 
O    1.39175814   0.63903456  -1.93204112 
C    2.15895540  -0.27776654  -2.44227683 
O    2.15801815  -1.45848582  -2.14801402 
C    3.15568795   0.23092687  -3.52219866 
H    3.52376656  -0.59325160  -4.12534572 
H    4.01471758   0.63715241  -2.97923820 
H    2.78449406   1.00806270  -4.17475873 
*
