! EnGrad PBEh-3c
%output 
xyzfile=True 
end 
%scf 
maxiter 250 
end
%output
Print[P_Hirshfeld] = 1
end
% maxcore
4000
*xyz 0 1
Pd   0.34770230   0.20259058  -0.07245235 
O    1.91524347   1.32185467   0.63511575 
C    1.76022902   2.58235220   0.42388092 
O    0.66280620   3.03043357  -0.08730677 
C    2.94969819   3.50736580   0.69109271 
H    2.58905726   4.43740009   1.13248508 
H    3.40626076   3.77166180  -0.26449816 
H    3.70114524   3.06276449   1.32381336 
N   -1.28761124  -0.96254441  -0.93647072 
C   -0.89594981  -2.32829611  -1.31145470 
H   -0.11257475  -2.31085157  -2.03833379 
H   -1.75904938  -2.83012144  -1.74556980 
H   -0.55635100  -2.86142091  -0.42774385 
C   -1.80873767  -0.27149511  -2.12729129 
H   -1.94737131   0.78287677  -1.93243033 
H   -2.75546580  -0.72602950  -2.41142344 
H   -1.11554662  -0.39515851  -2.95130420 
C   -1.85014929  -1.08056066   1.50902621 
C   -2.40261845  -1.93412401   2.47401958 
C   -2.02376164  -1.82468458   3.80595322 
C   -1.08438327  -0.88569697   4.16881094 
C   -0.56101274  -0.01781048   3.21167865 
C   -0.83720962  -0.16034687   1.82116487 
H   -0.79328885  -0.77534239   5.21226952 
H    0.07545420   0.73824159   3.59231284 
H   -3.19593419  -2.61352381   2.22927516 
H   -2.50097383  -2.42004119   4.56320700 
H   -0.76345036   3.85884995   0.74725414 
C   -2.36738518  -1.03011565   0.12242471 
H   -2.97065279  -0.12783742   0.03668560 
H   -3.03303990  -1.86219065  -0.10013062 
O    1.39126830   0.63624612  -1.93457344 
C    2.16399621  -0.28582990  -2.43233215 
O    2.15926465  -1.46759398  -2.14653132 
C    3.16152848   0.22198049  -3.51723264 
H    3.52901745  -0.60504835  -4.11792712 
H    4.01952190   0.62800609  -2.97434170 
H    2.79122357   0.99968355  -4.17242664 
*
