! EnGrad PBEh-3c
%output 
xyzfile=True 
end 
%scf 
maxiter 250 
end
%output
Print[P_Hirshfeld] = 1
end
% maxcore
4000
*xyz 0 1
Pd   0.32169853   0.24037368  -0.01005817 
O    1.88508444   1.34380269   0.61970814 
C    1.72715959   2.58967317   0.42855697 
O    0.58479912   3.04892149  -0.05519268 
C    2.93063755   3.51454416   0.68348373 
H    2.56621541   4.44322956   1.12358984 
H    3.39136714   3.78529649  -0.27135772 
H    3.69622270   3.07750050   1.32468580 
N   -1.30639518  -0.95750444  -0.94394263 
C   -0.90990790  -2.31547063  -1.35945976 
H   -0.12282320  -2.26112217  -2.09285638 
H   -1.79930231  -2.78740317  -1.77401847 
H   -0.57139328  -2.86424295  -0.48480550 
C   -1.82938175  -0.22758630  -2.11567429 
H   -1.96262135   0.82652150  -1.89005063 
H   -2.78275259  -0.67589043  -2.38854822 
H   -1.12813787  -0.32648105  -2.93799318 
C   -1.84463055  -1.05813009   1.51695246 
C   -2.35410335  -1.95974406   2.46327076 
C   -1.96864494  -1.86410819   3.79281050 
C   -1.08625648  -0.86888777   4.16133876 
C   -0.60525925   0.03583180   3.20738146 
C   -0.78717941  -0.16319816   1.79898295 
H   -0.78628835  -0.76837123   5.20571269 
H    0.00598410   0.81982757   3.59339296 
H   -3.11584824  -2.68001016   2.20491728 
H   -2.42455769  -2.48132718   4.54854921 
H   -0.71806024   3.77335746   0.74056630 
C   -2.36954462  -1.04181182   0.12445694 
H   -2.97721630  -0.14273248   0.04956465 
H   -3.01392820  -1.88758287  -0.11342865 
O    1.39298502   0.61581324  -1.94057513 
C    2.18364427  -0.31876532  -2.39519907 
O    2.16403443  -1.51034375  -2.13683542 
C    3.18974919   0.17699876  -3.48981349 
H    3.55555010  -0.66229607  -4.08120156 
H    4.04476606   0.58361166  -2.94982485 
H    2.82534916   0.95659583  -4.15958062 
*
