! EnGrad PBEh-3c
%output 
xyzfile=True 
end 
%scf 
maxiter 250 
end
%output
Print[P_Hirshfeld] = 1
end
% maxcore
4000
*xyz 1 1
Ir   0.46899650  -0.74387759   0.79568958 
C   -0.08631597  -2.79056686   1.49926827 
C    0.59547941  -2.10129971   2.56101679 
C    1.99777365  -2.21989910   0.71196108 
C    0.76637247  -2.85085389   0.36856913 
C    1.88723081  -1.81468903   2.07933818 
N   -1.00934145  -0.02457146  -0.43661274 
C   -2.42136663   0.01492282  -0.00159895 
C   -2.88429320   1.38342766   0.47568401 
H   -3.91433764   1.37768658   0.83309288 
H   -2.81605030   2.10792935  -0.33447327 
H   -2.30224283   1.73373994   1.31928208 
C   -3.45158504  -0.53514977  -0.98542392 
H   -2.47980112  -0.62237622   0.88058261 
H   -4.42417006  -0.65406260  -0.50918037 
H   -3.59593153   0.12370813  -1.84224195 
H   -3.15472958  -1.51514338  -1.35629237 
C   -0.74763518   0.25612094  -1.65748329 
C    0.53387875   0.22860215  -2.28638842 
H   -1.56281275   0.54730764  -2.31409046 
C    1.73769006  -0.00902691  -1.68671163 
C    2.83852343  -0.02979274  -2.56549094 
S    0.76026677   0.16607464  -3.98227813 
C    2.43487060  -0.01120755  -3.87014879 
H    2.25229091   1.12213318  -0.81932898 
H    3.89121506  -0.06243945  -2.31972099 
H    3.06190361  -0.11094698  -4.74308659 
H   -0.92574928  -3.45411668   1.64527465 
H    0.22271843  -2.01138232   3.57015157 
H    2.70369797  -1.40916064   2.65959614 
O    1.81050214   1.84210359   0.62496173 
O    0.18812389   1.09698275   1.78250024 
C    0.88269930   2.06825200   1.45394466 
C    0.81286245   3.40993521   2.06913152 
H    0.84123076   4.18111502   1.30054186 
H    1.66438252   3.59724284   2.72441729 
H   -0.09234197   3.52333209   2.65779217 
H    2.93732248  -2.34532396   0.19869472 
H    0.57867377  -3.46471093  -0.50093407 
*
