! EnGrad PBEh-3c
%output 
xyzfile=True 
end 
%scf 
maxiter 250 
end
%output
Print[P_Hirshfeld] = 1
end
% maxcore
4000
*xyz 1 1
Ir   0.48476968  -0.74790326   0.85791976 
C   -0.06005068  -2.82264264   1.43791864 
C    0.55853673  -2.11574839   2.51674793 
C    2.04787288  -2.28846340   0.81817928 
C    0.84759629  -2.89067270   0.36446347 
C    1.88049254  -1.78176214   2.13610530 
N   -1.04027690  -0.06150242  -0.48301701 
C   -2.46665827  -0.00458243   0.03244963 
C   -2.86283559   1.38051753   0.52612393 
H   -3.90393577   1.32470584   0.85137232 
H   -2.80446446   2.12119003  -0.27259566 
H   -2.25861565   1.69231635   1.37324506 
C   -3.45035690  -0.52750757  -1.00801754 
H   -2.47056038  -0.69333670   0.87863558 
H   -4.41411132  -0.63398325  -0.51193951 
H   -3.61445046   0.16717727  -1.83375191 
H   -3.17430630  -1.50421837  -1.40500975 
C   -0.76180214   0.27678922  -1.69356517 
C    0.58201383   0.20518352  -2.23863688 
H   -1.60248273   0.55583796  -2.33537208 
C    1.82849551   0.26714477  -1.64478239 
C    2.83395693  -0.06613079  -2.55528299 
S    0.72000286   0.14758402  -3.98245479 
C    2.41490235  -0.03681042  -3.85515328 
H    2.04132884   0.85117873  -0.79287297 
H    3.86982761  -0.10446593  -2.27950617 
H    3.04886265  -0.08473290  -4.73315861 
H   -0.98362890  -3.38613082   1.52090740 
H    0.12231207  -1.97863165   3.49715772 
H    2.64204460  -1.35118377   2.76030216 
O    1.88148038   1.93810154   0.57226523 
O    0.16410086   1.06034051   1.75693286 
C    1.02829587   2.03225342   1.36378810 
C    0.80418603   3.40548259   2.04805087 
H    0.83883810   4.18639290   1.27992112 
H    1.67617720   3.59193518   2.68308928 
H   -0.09270448   3.52747791   2.64859594 
H    2.96338112  -2.22139812   0.24873311 
H    0.68164366  -3.43228621  -0.55141724 
*
