! EnGrad PBEh-3c
%output 
xyzfile=True 
end 
%scf 
maxiter 250 
end
%output
Print[P_Hirshfeld] = 1
end
% maxcore
4000
*xyz 1 1
Ir   0.43812849  -0.79493827   0.92914825 
C   -0.04845300  -2.84044097   1.39389120 
C    0.54259056  -2.11463353   2.50341945 
C    2.10455539  -2.32256569   0.87599637 
C    0.92027002  -2.94259534   0.37363888 
C    1.88612669  -1.77620058   2.18534401 
N   -1.05642542  -0.09090999  -0.49249414 
C   -2.45603253  -0.02735713   0.02872761 
C   -2.84392538   1.36882087   0.55873568 
H   -3.89260395   1.29142297   0.85991126 
H   -2.79244220   2.13705695  -0.22648761 
H   -2.22011556   1.67692794   1.40671874 
C   -3.45475671  -0.52192471  -1.01693698 
H   -2.46316292  -0.74410118   0.87860346 
H   -4.40754923  -0.62322584  -0.51730645 
H   -3.62351831   0.19445124  -1.82824536 
H   -3.18317562  -1.49752633  -1.44318514 
C   -0.75591227   0.28613346  -1.68678025 
C    0.56026986   0.24729203  -2.23910191 
H   -1.60744470   0.56466281  -2.36074744 
C    1.82713419   0.39292860  -1.76766094 
C    2.86858870  -0.02662828  -2.58902042 
S    0.70877063   0.08980545  -3.93450099 
C    2.39390849  -0.08703223  -3.84989846 
H    1.87579659   0.63330850  -0.62400380 
H    3.87681339  -0.13373261  -2.25020530 
H    3.01860283  -0.07484069  -4.72122499 
H   -1.05981011  -3.27566931   1.41191287 
H    0.04741496  -1.92730484   3.43715788 
H    2.61297439  -1.28727464   2.83859028 
O    1.99043396   1.98230353   0.51562348 
O    0.25172125   1.06270932   1.68985006 
C    0.99667073   2.03935928   1.40582093 
C    0.80592612   3.37305557   2.02763851 
H    0.82858109   4.16851033   1.27366915 
H    1.67239305   3.58092281   2.65471834 
H   -0.09623418   3.51583158   2.63961220 
H    2.97850265  -2.10860917   0.26061732 
H    0.75556819  -3.39230703  -0.61217095 
*
