! EnGrad PBEh-3c
%output 
xyzfile=True 
end 
%scf 
maxiter 250 
end
%output
Print[P_Hirshfeld] = 1
end
% maxcore
4000
*xyz 1 1
Ir   0.47028575  -0.76250949   0.88003903 
C   -0.05644914  -2.82816973   1.42424638 
C    0.55358481  -2.11540218   2.51260891 
C    2.06547504  -2.29905351   0.83613377 
C    0.87016436  -2.90679674   0.36731280 
C    1.88224217  -1.78003506   2.15139587 
N   -1.04529166  -0.07063464  -0.48596003 
C   -2.46335856  -0.01165487   0.03129379 
C   -2.85696322   1.37688525   0.53625116 
H   -3.90041679   1.31437019   0.85402400 
H   -2.80073108   2.12611734  -0.25827729 
H   -2.24665985   1.68753764   1.38363996 
C   -3.45172321  -0.52577387  -1.01078738 
H   -2.46826318  -0.70910108   0.87862560 
H   -4.41207353  -0.63064265  -0.51360616 
H   -3.61726638   0.17564692  -1.83204191 
H   -3.17706057  -1.50214023  -1.41686472 
C   -0.75997310   0.27969098  -1.69145818 
C    0.57526147   0.21825988  -2.23878129 
H   -1.60402362   0.55857843  -2.34325213 
C    1.82807277   0.30620562  -1.68294104 
C    2.84471147  -0.05386370  -2.56575980 
S    0.71651481   0.12964149  -3.96756324 
C    2.40838292  -0.05240628  -3.85352145 
H    1.98992453   0.78352141  -0.74043242 
H    3.87199697  -0.11355439  -2.27040709 
H    3.03946578  -0.08166098  -4.72945275 
H   -1.00728618  -3.35182816   1.48706029 
H    0.09905356  -1.96269264   3.47852540 
H    2.63301715  -1.33133746   2.78461372 
O    1.91531478   1.95182800   0.55467573 
O    0.19131046   1.06107612   1.73610099 
C    1.01847501   2.03446007   1.37684096 
C    0.80472639   3.39541272   2.04171203 
H    0.83565290   4.18083966   1.27797963 
H    1.67500207   3.58851540   2.67427898 
H   -0.09380059   3.52386127   2.64580614 
H    2.96807696  -2.18637269   0.25242363 
H    0.70460015  -3.41987110  -0.57028367 
*
