! EnGrad PBEh-3c
%output 
xyzfile=True 
end 
%scf 
maxiter 250 
end
%output
Print[P_Hirshfeld] = 1
end
% maxcore
4000
*xyz 1 1
Ir   0.42634488  -0.81714178   0.91281577 
C   -0.05222617  -2.84115411   1.39008007 
C    0.53487865  -2.11901301   2.50725098 
C    2.11269810  -2.29558775   0.87745774 
C    0.93254210  -2.94856294   0.37873750 
C    1.88523053  -1.78817474   2.19834851 
N   -1.04172490  -0.09630281  -0.47804810 
C   -2.44255128  -0.03532634   0.02355116 
C   -2.83650628   1.35420120   0.56115062 
H   -3.88425411   1.28823248   0.86816591 
H   -2.78655905   2.13387260  -0.20925968 
H   -2.21814884   1.66997465   1.40966756 
C   -3.45555862  -0.51965733  -1.01818525 
H   -2.46543625  -0.74561796   0.86646414 
H   -4.41385914  -0.62438934  -0.51811132 
H   -3.62266557   0.19944478  -1.82418032 
H   -3.18682816  -1.48802278  -1.45052549 
C   -0.78047962   0.28409754  -1.67487764 
C    0.55542170   0.27276647  -2.27693564 
H   -1.58661802   0.56265982  -2.35465508 
C    1.82064476   0.41317100  -1.67788975 
C    2.86224601   0.01094454  -2.57910954 
S    0.70169360   0.06762088  -3.95994404 
C    2.38887530  -0.09634901  -3.87642953 
H    1.84545166   0.55270802  -0.62488769 
H    3.89280409  -0.13673531  -2.24768507 
H    3.00915043  -0.08503756  -4.73202484 
H   -1.06892351  -3.23981109   1.37789517 
H    0.02319047  -1.91343834   3.43002019 
H    2.59707544  -1.27461627   2.85053276 
O    1.90797512   1.98491498   0.61175986 
O    0.27770053   1.05734370   1.67882601 
C    1.09711071   2.05890484   1.30934201 
C    0.80018546   3.37198000   2.02925144 
H    0.82418502   4.15643520   1.27149623 
H    1.67177244   3.57751137   2.65106337 
H   -0.09186951   3.50359004   2.63241623 
H    2.98450239  -2.08366223   0.26872102 
H    0.78305979  -3.37523482  -0.61688902 
*
