! EnGrad PBEh-3c
%output 
xyzfile=True 
end 
%scf 
maxiter 250 
end
%output
Print[P_Hirshfeld] = 1
end
% maxcore
4000
*xyz 1 1
Ir   0.45848476  -0.77718182   0.88884172 
C   -0.05531500  -2.83165688   1.41507049 
C    0.54856099  -2.11637193   2.51116996 
C    2.07815751  -2.29812273   0.84723195 
C    0.88691685  -2.91801369   0.37038107 
C    1.88304474  -1.78222109   2.16400572 
N   -1.04433375  -0.07752822  -0.48383516 
C   -2.45777044  -0.01801221   0.02921439 
C   -2.85146920   1.37079310   0.54293829 
H   -3.89607606   1.30735051   0.85782202 
H   -2.79692496   2.12820013  -0.24511286 
H   -2.23900278   1.68282083   1.39063007 
C   -3.45275327  -0.52413118  -1.01277419 
H   -2.46750396  -0.71890824   0.87535946 
H   -4.41255308  -0.62896323  -0.51481609 
H   -3.61871642   0.18203820  -1.82993056 
H   -3.17968381  -1.49834878  -1.42590483 
C   -0.76548044   0.28087443  -1.68700523 
C    0.56993320   0.23289846  -2.24902823 
H   -1.59934908   0.55967455  -2.34631457 
C    1.82607786   0.33493281  -1.68158444 
C    2.84942064  -0.03645846  -2.56934507 
S    0.71253435   0.11298491  -3.96551699 
C    2.40314385  -0.06420777  -3.85967377 
H    1.95112414   0.72153295  -0.70940112 
H    3.87758504  -0.11977998  -2.26430475 
H    3.03132413  -0.08256781  -4.73014352 
H   -1.02383982  -3.32174426   1.45774233 
H    0.07867937  -1.94946465   3.46549859 
H    2.62336446  -1.31610412   2.80231728 
O    1.91334360   1.96071402   0.57000654 
O    0.21451183   1.06007372   1.72071892 
C    1.03959383   2.04102509   1.35871309 
C    0.80350686   3.38911950   2.03836555 
H    0.83257302   4.17428547   1.27623842 
H    1.67413470   3.58556010   2.66804407 
H   -0.09328197   3.51841712   2.64221007 
H    2.97248826  -2.15878823   0.25680054 
H    0.72567168  -3.40788334  -0.58280025 
*
