! EnGrad PBEh-3c
%output 
xyzfile=True 
end 
%scf 
maxiter 250 
end
%output
Print[P_Hirshfeld] = 1
end
% maxcore
4000
*xyz 1 1
Ir   0.50795743  -0.72876569   0.82756709 
C   -0.05853192  -2.81526595   1.44732237 
C    0.55368233  -2.12447172   2.50814580 
C    2.02297527  -2.26872406   0.81365066 
C    0.82698548  -2.87182760   0.36065094 
C    1.87874213  -1.78152762   2.12332688 
N   -1.03369159  -0.05455783  -0.47936632 
C   -2.48184803  -0.00024336   0.04378284 
C   -2.86332239   1.37978989   0.51908494 
H   -3.90698732   1.33116049   0.85610921 
H   -2.80748248   2.11120669  -0.27708305 
H   -2.27367036   1.68585156   1.36683375 
C   -3.44414440  -0.52771053  -1.01061581 
H   -2.47445229  -0.67645482   0.86890443 
H   -4.42196908  -0.63637694  -0.50847214 
H   -3.61352229   0.16290051  -1.83193501 
H   -3.17670545  -1.49928028  -1.39526476 
C   -0.77589392   0.27933474  -1.69691947 
C    0.56059530   0.17524814  -2.28414044 
H   -1.59439265   0.54928861  -2.32123807 
C    1.85529654   0.24481683  -1.49939869 
C    2.82558559  -0.09658435  -2.57231297 
S    0.71914518   0.17505178  -4.02073169 
C    2.42490487  -0.01271464  -3.86657184 
H    2.10065401   0.92483784  -0.85805969 
H    3.86518140  -0.09736452  -2.28144168 
H    3.05938027  -0.08752965  -4.73434883 
H   -0.94772852  -3.43029568   1.54542682 
H    0.13263414  -1.99954271   3.51548337 
H    2.63129803  -1.37719067   2.73886782 
O    1.89921672   1.92139044   0.53664449 
O    0.11855188   1.05172009   1.78428723 
C    1.01256375   2.03629416   1.37472379 
C    0.80115326   3.42983958   2.05307877 
H    0.84358219   4.19469517   1.27927034 
H    1.68237891   3.59768228   2.68884164 
H   -0.08644053   3.53049714   2.64722739 
H    2.96436537  -2.25417568   0.26127170 
H    0.67374284  -3.44323178  -0.52402511 
*
