! EnGrad PBEh-3c
%output 
xyzfile=True 
end 
%scf 
maxiter 250 
end
%output
Print[P_Hirshfeld] = 1
end
% maxcore
4000
*xyz 1 1
Ir   0.50480155  -0.73527992   0.82783492 
C   -0.05822194  -2.82419390   1.43239996 
C    0.54209264  -2.12204611   2.50924132 
C    2.04127673  -2.27189286   0.82562099 
C    0.84799868  -2.87493052   0.36274387 
C    1.86468435  -1.77936761   2.13616743 
N   -1.04004794  -0.05946223  -0.48166082 
C   -2.47707140  -0.00328494   0.03533693 
C   -2.86460110   1.37218405   0.53255709 
H   -3.90304538   1.32121444   0.86430370 
H   -2.80363462   2.11236521  -0.26112340 
H   -2.26467003   1.67313807   1.38123603 
C   -3.45319401  -0.52185836  -1.00785259 
H   -2.47490577  -0.69453289   0.87074984 
H   -4.42017319  -0.63222274  -0.51167290 
H   -3.61722493   0.17485218  -1.82937711 
H   -3.18125726  -1.49573319  -1.40675417 
C   -0.76881909   0.27524085  -1.69921835 
C    0.57258894   0.18301768  -2.25794275 
H   -1.60604129   0.55225782  -2.32938578 
C    1.84530138   0.26992101  -1.53527882 
C    2.82037163  -0.09290147  -2.55240123 
S    0.72042014   0.17140528  -4.00751043 
C    2.41963373  -0.01903432  -3.85799261 
H    2.07042544   0.88657118  -0.85639139 
H    3.86280484  -0.10904278  -2.27586142 
H    3.05942453  -0.08274591  -4.73126304 
H   -0.95295970  -3.42214886   1.51529480 
H    0.10731686  -1.99810378   3.49480303 
H    2.61573076  -1.36455673   2.76556038 
O    1.87751701   1.94021172   0.55707149 
O    0.14194069   1.06005177   1.76206098 
C    1.04624644   2.03202301   1.34094000 
C    0.80986373   3.41996855   2.04311072 
H    0.84346508   4.19764975   1.27284547 
H    1.68474294   3.59906242   2.67858775 
H   -0.08599014   3.52998696   2.64393412 
H    2.97087799  -2.23083833   0.28195150 
H    0.70205451  -3.43909010  -0.53446177 
*
