! EnGrad PBEh-3c
%output 
xyzfile=True 
end 
%scf 
maxiter 250 
end
%output
Print[P_Hirshfeld] = 1
end
% maxcore
4000
*xyz 1 1
Ir   0.49542830  -0.73561782   0.81710134 
C   -0.06662199  -2.80859555   1.46151375 
C    0.56349200  -2.11726846   2.52350452 
C    2.01799505  -2.25395693   0.78511219 
C    0.81302376  -2.86603207   0.36307372 
C    1.87975487  -1.79111455   2.11265595 
N   -1.02768600  -0.04631663  -0.46550792 
C   -2.46179642   0.00327900   0.02820155 
C   -2.86976702   1.37941321   0.50813787 
H   -3.90864784   1.34355830   0.85074445 
H   -2.80932598   2.11047315  -0.29141874 
H   -2.28061883   1.69821357   1.35507143 
C   -3.44808606  -0.52883711  -1.00260174 
H   -2.47613659  -0.66329424   0.87262222 
H   -4.42255186  -0.64104189  -0.50923329 
H   -3.60883776   0.15314131  -1.83452446 
H   -3.17084931  -1.50329902  -1.38551810 
C   -0.76477059   0.27130518  -1.68638732 
C    0.55286891   0.19504592  -2.27863831 
H   -1.58672915   0.54925134  -2.32068996 
C    1.81680070   0.16725504  -1.56921515 
C    2.82723666  -0.07365485  -2.56589275 
S    0.73229729   0.17119437  -4.00539180 
C    2.42731475  -0.01395852  -3.86447510 
H    2.14147856   0.97991405  -0.84305585 
H    3.87344672  -0.08912853  -2.29214749 
H    3.06010209  -0.09386975  -4.73652521 
H   -0.94272293  -3.43587662   1.56993925 
H    0.15511111  -2.00269372   3.52874270 
H    2.65030198  -1.38435710   2.71968075 
O    1.85395506   1.90303953   0.58029771 
O    0.14176924   1.06369604   1.78121355 
C    0.99661156   2.04649524   1.37723642 
C    0.80497904   3.42193019   2.05738395 
H    0.84285727   4.19065793   1.28435697 
H    1.67735190   3.59765258   2.69772376 
H   -0.08742566   3.52831467   2.64947530 
H    2.95807866  -2.27755410   0.24560654 
H    0.65015666  -3.44882460  -0.51925585 
*
