! EnGrad PBEh-3c
%output 
xyzfile=True 
end 
%scf 
maxiter 250 
end
%output
Print[P_Hirshfeld] = 1
end
% maxcore
4000
*xyz 1 1
Ir   0.49313443  -0.73849742   0.83473251 
C   -0.06268511  -2.81473100   1.45184548 
C    0.56043103  -2.11758195   2.51873475 
C    2.02925665  -2.27100528   0.80074092 
C    0.82790162  -2.87643613   0.36219870 
C    1.88091593  -1.78523355   2.12355840 
N   -1.03336609  -0.05281311  -0.47541768 
C   -2.46643897   0.00009479   0.03210305 
C   -2.86686298   1.38088970   0.51617928 
H   -3.90676684   1.33486781   0.85095827 
H   -2.80738111   2.11508165  -0.28336448 
H   -2.27094611   1.69517694   1.36334189 
C   -3.44869778  -0.52841469  -1.00568774 
H   -2.47356966  -0.67668844   0.87538344 
H   -4.41856815  -0.63768606  -0.51019561 
H   -3.61153968   0.15946532  -1.83424170 
H   -3.17253945  -1.50384112  -1.39398530 
C   -0.76432620   0.27389465  -1.69133195 
C    0.56828029   0.19617323  -2.25862040 
H   -1.59532231   0.55222469  -2.32680488 
C    1.83031535   0.22528785  -1.58538295 
C    2.82705267  -0.07402544  -2.55946970 
S    0.72539251   0.16267853  -3.99814895 
C    2.42222931  -0.02265167  -3.85900658 
H    2.09373739   0.91476933  -0.83665421 
H    3.87120492  -0.09594240  -2.28650609 
H    3.05640283  -0.08932868  -4.73611689 
H   -0.96006732  -3.41665001   1.54929123 
H    0.14092392  -1.99305859   3.51548085 
H    2.64595412  -1.37072352   2.73705014 
O    1.88707825   1.91628897   0.55511267 
O    0.14547317   1.05666931   1.77215172 
C    0.99492669   2.04711681   1.38979841 
C    0.80492135   3.41418532   2.05244828 
H    0.84135876   4.19026197   1.28189861 
H    1.67740221   3.59544578   2.69138679 
H   -0.09004064   3.52856426   2.64939593 
H    2.96088644  -2.25358892   0.24740289 
H    0.66380922  -3.44210028  -0.53226616 
*
