! EnGrad PBEh-3c
%output 
xyzfile=True 
end 
%scf 
maxiter 250 
end
%output
Print[P_Hirshfeld] = 1
end
% maxcore
4000
*xyz 1 1
Ir   0.46712342  -0.76774580   0.90683558 
C   -0.05449310  -2.83933303   1.40853858 
C    0.55454052  -2.11188033   2.51255653 
C    2.08714566  -2.32529303   0.85496721 
C    0.88914415  -2.92070616   0.36924123 
C    1.87959936  -1.77443885   2.16257424 
N   -1.05485594  -0.07983339  -0.49904855 
C   -2.46712090  -0.01444949   0.03318076 
C   -2.85433941   1.37973238   0.54710313 
H   -3.89796333   1.30326816   0.85224579 
H   -2.79831151   2.13407627  -0.24987777 
H   -2.23260332   1.68628165   1.39413677 
C   -3.45385697  -0.52559391  -1.01293248 
H   -2.46421202  -0.72845785   0.88549629 
H   -4.40470918  -0.62617180  -0.51561846 
H   -3.62059104   0.18344639  -1.83271865 
H   -3.17803363  -1.50501422  -1.42826693 
C   -0.75647737   0.28289561  -1.69827637 
C    0.61098611   0.22419163  -2.19647966 
H   -1.61758833   0.56346051  -2.35344546 
C    1.82465640   0.35544609  -1.77009139 
C    2.84852217  -0.04947625  -2.54645070 
S    0.70863287   0.11574065  -3.94934639 
C    2.39944539  -0.06667970  -3.84702437 
H    1.93076783   0.71702805  -0.70051212 
H    3.86692204  -0.12244716  -2.26473915 
H    3.03295589  -0.07503765  -4.72691783 
H   -1.03333440  -3.32174758   1.46102890 
H    0.08304852  -1.94819659   3.45850328 
H    2.63379708  -1.30996274   2.80935461 
O    1.86967112   1.98411731   0.60845026 
O    0.20339783   1.06808526   1.72482716 
C    1.09869145   2.00089763   1.30891677 
C    0.80263480   3.38712331   2.03877411 
H    0.83352052   4.17823072   1.27574940 
H    1.67359290   3.58452922   2.66558486 
H   -0.09832411   3.52518616   2.64690829 
H    2.96864391  -2.15348842   0.25153933 
H    0.71926718  -3.41158247  -0.59181836 
*
