! EnGrad PBEh-3c
%output 
xyzfile=True 
end 
%scf 
maxiter 250 
end
%output
Print[P_Hirshfeld] = 1
end
% maxcore
4000
*xyz -1 1
Pt  -0.94648361  -0.85121411   0.51409263 
Cl  -0.22754744  -0.50978892   2.73039383 
Cl  -2.69288239  -2.23140869   1.15819657 
Cl  -1.55275715  -1.11244567  -1.73705659 
C    0.98761750   1.01439790  -0.57687085 
H    1.44004027   1.82276679  -0.00650745 
H    1.31439174  -0.23602937   0.31886786 
H    1.62914905   0.72576360  -1.40847730 
H    0.04847203   1.37795335  -0.99262893 
*
