! EnGrad PBEh-3c
%output 
xyzfile=True 
end 
%scf 
maxiter 250 
end
%output
Print[P_Hirshfeld] = 1
end
% maxcore
4000
*xyz -1 1
Pt  -0.93546339  -0.86583750   0.51834659 
Cl  -0.22810339  -0.49622635   2.70375782 
Cl  -2.65363330  -2.18730118   1.14623624 
Cl  -1.52675340  -1.11122855  -1.72309004 
C    1.06095297   0.89191877  -0.49502207 
H    1.44095228   1.79567030   0.01409530 
H    1.20550602  -0.10222771   0.19542527 
H    1.61163678   0.73064901  -1.40512971 
H    0.02226302   1.34409303  -0.95427619 
*
