! EnGrad PBEh-3c
%output 
xyzfile=True 
end 
%scf 
maxiter 250 
end
%output
Print[P_Hirshfeld] = 1
end
% maxcore
4000
*xyz -1 1
Pt  -0.93125160  -0.86726925   0.50685443 
Cl  -0.22132183  -0.47323140   2.67709926 
Cl  -2.62403538  -2.14991855   1.14359841 
Cl  -1.49110881  -1.11325293  -1.71430736 
C    1.00947634   0.94368407  -0.53352812 
H    1.45181687   1.70904717   0.05218241 
H    1.08750068   0.03139967   0.07692065 
H    1.60387393   0.71526388  -1.38687169 
H    0.10621804   1.20411895  -0.82034162 
*
