! EnGrad PBEh-3c
%output 
xyzfile=True 
end 
%scf 
maxiter 250 
end
%output
Print[P_Hirshfeld] = 1
end
% maxcore
4000
*xyz -1 1
Pt  -0.93136089  -0.86653464   0.50818321 
Cl  -0.22165952  -0.47474367   2.67831052 
Cl  -2.62880179  -2.15480442   1.14559424 
Cl  -1.49355361  -1.11274813  -1.71597610 
C    1.05084633   0.92308309  -0.51661538 
H    1.45567523   1.72130768   0.05453782 
H    1.09113516   0.02656900   0.08323295 
H    1.60972514   0.71575771  -1.39526359 
H    0.05885475   1.22200298  -0.84028408 
*
