! EnGrad PBEh-3c
%output 
xyzfile=True 
end 
%scf 
maxiter 250 
end
%output
Print[P_Hirshfeld] = 1
end
% maxcore
4000
*xyz -1 1
Pt  -0.93199238  -0.86541464   0.50817837 
Cl  -0.22094762  -0.47381625   2.67807245 
Cl  -2.63185450  -2.15729096   1.14774994 
Cl  -1.49298864  -1.11284305  -1.71788437 
C    1.04602307   0.92622741  -0.52028512 
H    1.46268756   1.72817090   0.06170463 
H    1.09060991   0.02008778   0.08884504 
H    1.61750854   0.71411600  -1.40434887 
H    0.05095705   1.22076854  -0.84004525 
*
