9
Coordinates from ORCA-job reaction-6-prod-pbeh3c-orca_opt E -1539.018556142647
  Pt     -0.492660     -0.754000      0.323410
  Cl     -0.119460     -0.193350      2.544260
  Cl     -1.944840     -2.270070      1.242590
  Cl     -0.971020     -1.508900     -1.818940
  C       0.730820      0.763540     -0.372040
  H       1.507470      0.990390      0.358120
  H       0.640900     -1.708280      0.405290
  H       1.170960      0.487700     -1.330210
  H       0.051080      1.611900     -0.488910
9
Coordinates from ORCA-job reaction-6-prod-pbeh3c-orca_opt E -1539.026196837216
  Pt     -0.505105     -0.767377      0.333540
  Cl     -0.081708     -0.094097      2.524293
  Cl     -2.026375     -2.420097      1.259834
  Cl     -0.983549     -1.463739     -1.828423
  C       0.734532      0.753611     -0.365972
  H       1.511847      0.987757      0.361081
  H       0.655886     -1.691654      0.399384
  H       1.184712      0.490353     -1.323306
  H       0.083010      1.624173     -0.496861
9
Coordinates from ORCA-job reaction-6-prod-pbeh3c-orca_opt E -1539.023232089674
  Pt     -0.523744     -0.805620      0.360702
  Cl      0.026791      0.109545      2.403729
  Cl     -2.026681     -2.503526      1.254510
  Cl     -0.906982     -1.258228     -1.867399
  C       0.683453      0.673805     -0.327693
  H       1.452833      0.925642      0.401221
  H       0.664456     -1.690690      0.401669
  H       1.148281      0.410764     -1.277912
  H       0.054842      1.557236     -0.485258
9
Coordinates from ORCA-job reaction-6-prod-pbeh3c-orca_opt E -1539.026789341248
  Pt     -0.488326     -0.770768      0.343147
  Cl     -0.141172     -0.049549      2.524351
  Cl     -1.990386     -2.458019      1.235213
  Cl     -1.072148     -1.415155     -1.806470
  C       0.740541      0.726141     -0.358587
  H       1.510717      0.980763      0.368340
  H       0.696732     -1.662764      0.385221
  H       1.205038      0.458981     -1.307942
  H       0.112255      1.609300     -0.519703
9
Coordinates from ORCA-job reaction-6-prod-pbeh3c-orca_opt E -1539.027522296666
  Pt     -0.517205     -0.805109      0.363908
  Cl     -0.073402      0.042305      2.480057
  Cl     -2.003717     -2.501318      1.244284
  Cl     -1.003904     -1.325858     -1.844278
  C       0.715974      0.699584     -0.345341
  H       1.491149      0.957279      0.376260
  H       0.686898     -1.674979      0.394980
  H       1.178325      0.436173     -1.297484
  H       0.099132      1.590852     -0.508816
9
Coordinates from ORCA-job reaction-6-prod-pbeh3c-orca_opt E -1539.027991935731
  Pt     -0.503388     -0.786187      0.355169
  Cl     -0.102107     -0.001704      2.496554
  Cl     -1.996983     -2.474912      1.236239
  Cl     -1.031986     -1.362969     -1.823098
  C       0.721603      0.704217     -0.348056
  H       1.494847      0.962191      0.375894
  H       0.700878     -1.652540      0.383895
  H       1.185506      0.436328     -1.298093
  H       0.104879      1.594506     -0.514935
9
Coordinates from ORCA-job reaction-6-prod-pbeh3c-orca_opt E -1539.028158326776
  Pt     -0.511459     -0.788591      0.358736
  Cl     -0.080060     -0.017386      2.501824
  Cl     -2.008129     -2.463146      1.236797
  Cl     -1.021300     -1.371653     -1.828211
  C       0.717404      0.705766     -0.347171
  H       1.484732      0.972182      0.380525
  H       0.700271     -1.645912      0.379140
  H       1.189733      0.432947     -1.291824
  H       0.102058      1.594722     -0.526247
9
Coordinates from ORCA-job reaction-6-prod-pbeh3c-orca_opt E -1539.028335016674
  Pt     -0.518971     -0.792047      0.364205
  Cl     -0.032004     -0.065680      2.513885
  Cl     -2.039677     -2.431293      1.237259
  Cl     -1.008136     -1.382340     -1.824161
  C       0.708686      0.707036     -0.345421
  H       1.450581      1.006176      0.396118
  H       0.709919     -1.624674      0.358451
  H       1.213135      0.418017     -1.268642
  H       0.089718      1.583736     -0.568123
9
Coordinates from ORCA-job reaction-6-prod-pbeh3c-orca_opt E -1539.028566418188
  Pt     -0.515660     -0.799537      0.372264
  Cl      0.003127     -0.112375      2.532676
  Cl     -2.076017     -2.398419      1.236012
  Cl     -1.010570     -1.389291     -1.821945
  C       0.702612      0.705689     -0.344017
  H       1.417729      1.040906      0.408203
  H       0.736684     -1.597510      0.335940
  H       1.238892      0.404276     -1.245361
  H       0.076452      1.565191     -0.610202
9
Coordinates from ORCA-job reaction-6-prod-pbeh3c-orca_opt E -1539.029189506811
  Pt     -0.499531     -0.821705      0.386213
  Cl      0.029948     -0.166605      2.559086
  Cl     -2.142668     -2.348910      1.231167
  Cl     -1.012130     -1.398016     -1.814377
  C       0.695023      0.695306     -0.342176
  H       1.387695      1.067144      0.413166
  H       0.803056     -1.533571      0.302259
  H       1.256755      0.392528     -1.227944
  H       0.055101      1.532761     -0.643825
9
Coordinates from ORCA-job reaction-6-prod-pbeh3c-orca_opt E -1539.030146592680
  Pt     -0.461082     -0.875288      0.396746
  Cl      0.037755     -0.222516      2.575835
  Cl     -2.252872     -2.256039      1.229430
  Cl     -1.005464     -1.434274     -1.803790
  C       0.686609      0.667509     -0.334231
  H       1.373569      1.057588      0.416258
  H       0.926755     -1.391920      0.242325
  H       1.253141      0.393984     -1.226932
  H       0.014839      1.479884     -0.632071
9
Coordinates from ORCA-job reaction-6-prod-pbeh3c-orca_opt E -1539.030379312590
  Pt     -0.439287     -0.901139      0.429604
  Cl      0.091879     -0.291040      2.608667
  Cl     -2.331413     -2.174366      1.179227
  Cl     -0.969876     -1.446305     -1.767554
  C       0.674232      0.653582     -0.337857
  H       1.347778      1.078977      0.405600
  H       0.981612     -1.311787      0.220739
  H       1.249139      0.380597     -1.225008
  H      -0.030814      1.430411     -0.649849
9
Coordinates from ORCA-job reaction-6-prod-pbeh3c-orca_opt E -1539.031097251134
  Pt     -0.419852     -0.940172      0.403127
  Cl      0.117737     -0.300018      2.560491
  Cl     -2.376982     -2.053848      1.186953
  Cl     -0.913692     -1.519470     -1.775494
  C       0.666017      0.654945     -0.328370
  H       1.342138      1.058417      0.425484
  H       1.021072     -1.313386      0.204562
  H       1.225452      0.427903     -1.235757
  H      -0.088641      1.404559     -0.577425
9
Coordinates from ORCA-job reaction-6-prod-pbeh3c-orca_opt E -1539.031058480797
  Pt     -0.417474     -0.923132      0.402323
  Cl      0.139092     -0.279497      2.570023
  Cl     -2.361834     -2.038344      1.159503
  Cl     -0.889073     -1.544302     -1.790719
  C       0.661752      0.668963     -0.330529
  H       1.353158      1.056800      0.418155
  H       0.993495     -1.381585      0.228962
  H       1.197919      0.442129     -1.250557
  H      -0.103783      1.417898     -0.543591
9
Coordinates from ORCA-job reaction-6-prod-pbeh3c-orca_opt E -1539.031267182009
  Pt     -0.402300     -0.957782      0.399099
  Cl      0.128457     -0.296622      2.572756
  Cl     -2.406719     -1.979358      1.166262
  Cl     -0.867107     -1.586599     -1.798685
  C       0.657057      0.650872     -0.323273
  H       1.364633      1.025538      0.415149
  H       1.042889     -1.289922      0.197710
  H       1.171688      0.450863     -1.262393
  H      -0.115347      1.401940     -0.503055
9
Coordinates from ORCA-job reaction-6-prod-pbeh3c-orca_opt E -1539.031322184071
  Pt     -0.411648     -0.946207      0.409752
  Cl      0.116801     -0.309690      2.577885
  Cl     -2.400881     -2.020146      1.165149
  Cl     -0.883713     -1.568494     -1.777405
  C       0.662399      0.662278     -0.329383
  H       1.367307      1.049231      0.405012
  H       1.034986     -1.316311      0.206889
  H       1.182772      0.443715     -1.261788
  H      -0.094774      1.424553     -0.532539
9
Coordinates from ORCA-job reaction-6-prod-pbeh3c-orca_opt E -1539.031412360631
  Pt     -0.407867     -0.947152      0.404247
  Cl      0.124619     -0.298961      2.575316
  Cl     -2.399695     -2.006060      1.162935
  Cl     -0.870381     -1.574435     -1.786415
  C       0.658817      0.660357     -0.326704
  H       1.367355      1.042250      0.407176
  H       1.030939     -1.323935      0.207323
  H       1.172408      0.446034     -1.263287
  H      -0.102945      1.420833     -0.517020
9
Coordinates from ORCA-job reaction-6-prod-pbeh3c-orca_opt E -1539.031427649479
  Pt     -0.404091     -0.950743      0.404121
  Cl      0.126717     -0.302418      2.574503
  Cl     -2.407025     -1.990570      1.159241
  Cl     -0.861262     -1.586091     -1.786908
  C       0.656539      0.659524     -0.325324
  H       1.369879      1.038987      0.405188
  H       1.037368     -1.318858      0.205079
  H       1.162682      0.449065     -1.266744
  H      -0.107557      1.420034     -0.505586
9
Coordinates from ORCA-job reaction-6-prod-pbeh3c-orca_opt E -1539.031439407119
  Pt     -0.401339     -0.954126      0.404638
  Cl      0.127073     -0.301443      2.575059
  Cl     -2.412183     -1.983835      1.155385
  Cl     -0.853991     -1.591631     -1.786100
  C       0.654761      0.659171     -0.324324
  H       1.373501      1.037198      0.401658
  H       1.040809     -1.319419      0.204186
  H       1.153254      0.450587     -1.270262
  H      -0.108636      1.422429     -0.496670
9
Coordinates from ORCA-job reaction-6-prod-pbeh3c-orca_opt E -1539.031441517033
  Pt     -0.400853     -0.953658      0.404763
  Cl      0.127596     -0.302694      2.575052
  Cl     -2.413240     -1.982568      1.154068
  Cl     -0.852475     -1.594064     -1.785022
  C       0.654282      0.659892     -0.324111
  H       1.374249      1.037928      0.400679
  H       1.040863     -1.321084      0.204425
  H       1.151301      0.451080     -1.270812
  H      -0.108472      1.424096     -0.495473
