9
Generated by autodE on: 2023-07-07. E = -22.713149 Ha
Pt   -0.49266  -0.75400   0.32341
Cl   -0.11946  -0.19335   2.54426
Cl   -2.63009   0.20956   0.44791
Cl   -0.97102  -1.50890  -1.81894
C     0.73082   0.76354  -0.37204
H     1.50747   0.99039   0.35812
H     0.75291  -1.60685   0.33641
H     1.17096   0.48770  -1.33021
H     0.05108   1.61190  -0.48891
