21
Coordinates from ORCA-job reaction-5-dhsgs_optts_Compound_1 E -1104.424626686661
  Sc      0.841060     -0.402190     -2.101070
  C       0.488800     -0.677920      0.209180
  N      -0.444760     -1.370770      0.890360
  C      -0.913690     -0.653380      1.959690
  C      -0.239290      0.516760      1.965410
  N       0.623520      0.469010      0.903540
  C       1.547030      1.537460      0.561930
  H       2.001630      1.934040      1.465970
  H       1.034970      2.339000      0.034600
  H       2.346610      1.153870     -0.066420
  C      -0.922660     -2.702720      0.569740
  H      -0.240890     -3.184130     -0.124880
  H      -1.919330     -2.662860      0.134970
  H      -0.958610     -3.307800      1.473850
  H      -1.678940     -1.022590      2.622150
  H      -0.309600      1.361800      2.627990
  C      -0.366280      1.241400     -2.607210
  H      -0.699970      0.893650     -3.598300
  H      -0.410760      2.330040     -2.643210
  H      -1.090160      0.928550     -1.828780
  H       1.280360      1.263040     -2.449910
21
Coordinates from ORCA-job reaction-5-dhsgs_optts_Compound_1 E -1104.424324290842
  Sc      0.803714     -0.352601     -2.081786
  C       0.469020     -0.639629      0.230527
  N      -0.449383     -1.349062      0.915178
  C      -0.866689     -0.677441      2.033839
  C      -0.176654      0.482766      2.066461
  N       0.641755      0.475506      0.969928
  C       1.571743      1.547476      0.655620
  H       2.058797      1.887422      1.566084
  H       1.057971      2.384470      0.188031
  H       2.344091      1.187562     -0.017832
  C      -0.955838     -2.658504      0.551816
  H      -0.308289     -3.112028     -0.192349
  H      -1.968176     -2.586749      0.158738
  H      -0.963621     -3.305213      1.426910
  H      -1.606574     -1.069856      2.711006
  H      -0.203386      1.294306      2.772775
  C      -0.380940      1.208611     -2.795543
  H      -0.549775      0.769560     -3.797321
  H      -0.531052      2.281408     -2.905331
  H      -1.162919      0.849951     -2.088611
  H       1.145246      1.366306     -2.368540
21
Coordinates from ORCA-job reaction-5-dhsgs_optts_Compound_1 E -1104.426752919637
  Sc      0.744192     -0.352345     -2.067428
  C       0.436551     -0.575493      0.250479
  N      -0.457412     -1.315222      0.935403
  C      -0.805923     -0.714571      2.115387
  C      -0.101029      0.434983      2.181986
  N       0.655045      0.493517      1.043106
  C       1.565393      1.587965      0.751147
  H       2.100098      1.867421      1.655610
  H       1.021959      2.451562      0.372939
  H       2.294858      1.282520      0.008022
  C      -0.994815     -2.592471      0.509757
  H      -0.390590     -2.995434     -0.297768
  H      -2.025057     -2.487864      0.174263
  H      -0.962666     -3.300253      1.335249
  H      -1.509899     -1.144682      2.807452
  H      -0.077072      1.198246      2.940565
  C      -0.376319      1.143791     -2.964288
  H      -0.459937      0.615407     -3.937411
  H      -0.553200      2.196382     -3.170534
  H      -1.205025      0.816484     -2.289901
  H       1.069889      1.374316     -2.354435
21
Coordinates from ORCA-job reaction-5-dhsgs_optts_Compound_1 E -1104.428354623770
  Sc      0.657932     -0.324834     -2.052089
  C       0.372048     -0.528400      0.272258
  N      -0.472567     -1.306778      0.977911
  C      -0.734285     -0.775023      2.211969
  C      -0.027443      0.371903      2.290100
  N       0.641562      0.498692      1.103402
  C       1.516249      1.620505      0.809064
  H       2.119837      1.851084      1.683459
  H       0.935054      2.498250      0.532331
  H       2.183913      1.374796     -0.010460
  C      -1.036850     -2.561664      0.522308
  H      -0.497170     -2.912158     -0.352936
  H      -2.090456     -2.446927      0.273892
  H      -0.937117     -3.317023      1.298730
  H      -1.382497     -1.247448      2.930293
  H       0.054311      1.090202      3.087778
  C      -0.328617      1.136101     -3.140741
  H      -0.321623      0.530754     -4.075225
  H      -0.468934      2.170214     -3.441787
  H      -1.233713      0.870357     -2.538368
  H       1.019408      1.391657     -2.382289
21
Coordinates from ORCA-job reaction-5-dhsgs_optts_Compound_1 E -1104.429924872611
  Sc      0.609694     -0.290609     -2.023730
  C       0.341459     -0.453748      0.299707
  N      -0.475516     -1.271231      0.993224
  C      -0.671093     -0.819070      2.270519
  C       0.048111      0.317353      2.385608
  N       0.657002      0.518477      1.176897
  C       1.508164      1.663034      0.903479
  H       2.172054      1.835260      1.747108
  H       0.907023      2.554124      0.732044
  H       2.114289      1.479523      0.021759
  C      -1.081705     -2.482743      0.479113
  H      -0.594817     -2.774189     -0.447801
  H      -2.144602     -2.337147      0.294061
  H      -0.953780     -3.295882      1.190014
  H      -1.286104     -1.333420      2.989227
  H       0.176173      0.980937      3.223671
  C      -0.330904      1.055064     -3.263955
  H      -0.189532      0.386864     -4.146068
  H      -0.494335      2.056235     -3.650588
  H      -1.278560      0.766654     -2.737533
  H       0.936019      1.428776     -2.437155
21
Coordinates from ORCA-job reaction-5-dhsgs_optts_Compound_1 E -1104.431104895696
  Sc      0.563187     -0.263961     -2.007692
  C       0.277518     -0.422522      0.315089
  N      -0.487002     -1.274256      1.027872
  C      -0.605553     -0.873039      2.331496
  C       0.107725      0.266259      2.444873
  N       0.635523      0.520349      1.208532
  C       1.442397      1.694040      0.925074
  H       2.182792      1.831459      1.709382
  H       0.814973      2.581502      0.865791
  H       1.963127      1.575277     -0.021073
  C      -1.124765     -2.467327      0.508354
  H      -0.707771     -2.719055     -0.463572
  H      -2.198282     -2.319411      0.405296
  H      -0.944257     -3.308747      1.173372
  H      -1.168414     -1.422156      3.066868
  H       0.283297      0.899503      3.297612
  C      -0.276644      1.053851     -3.364410
  H      -0.097313      0.362139     -4.219451
  H      -0.379220      2.048034     -3.788526
  H      -1.269752      0.809845     -2.901666
  H       0.957473      1.412476     -2.513622
21
Coordinates from ORCA-job reaction-5-dhsgs_optts_Compound_1 E -1104.431932654701
  Sc      0.527166     -0.235556     -1.992158
  C       0.227150     -0.379740      0.329312
  N      -0.497186     -1.265241      1.042134
  C      -0.556860     -0.914491      2.364413
  C       0.152015      0.227096      2.487837
  N       0.618835      0.533281      1.238209
  C       1.393414      1.729076      0.957339
  H       2.212293      1.817643      1.667271
  H       0.762431      2.613416      1.024429
  H       1.808404      1.678142     -0.046034
  C      -1.155200     -2.439691      0.506111
  H      -0.800286     -2.637867     -0.502281
  H      -2.234192     -2.298556      0.477324
  H      -0.926313     -3.310329      1.116385
  H      -1.080993     -1.495777      3.103776
  H       0.361211      0.829631      3.355180
  C      -0.238813      1.027547     -3.432456
  H      -0.075758      0.273336     -4.235405
  H      -0.298605      1.995825     -3.918738
  H      -1.243596      0.844633     -2.963541
  H       1.013923      1.391882     -2.579506
21
Coordinates from ORCA-job reaction-5-dhsgs_optts_Compound_1 E -1104.432332910354
  Sc      0.514445     -0.216224     -1.979231
  C       0.194716     -0.357556      0.338687
  N      -0.506641     -1.259622      1.052646
  C      -0.536640     -0.929310      2.381456
  C       0.169556      0.214449      2.506487
  N       0.604051      0.543975      1.250706
  C       1.378275      1.740719      0.971768
  H       2.257456      1.774228      1.611002
  H       0.774077      2.629467      1.142958
  H       1.702706      1.739219     -0.066223
  C      -1.175088     -2.426398      0.513071
  H      -0.870918     -2.587697     -0.518381
  H      -2.255644     -2.297892      0.540241
  H      -0.906445     -3.312370      1.083805
  H      -1.041169     -1.524207      3.123653
  H       0.395576      0.804386      3.378350
  C      -0.224464      1.015431     -3.462764
  H       0.031445      0.279923     -4.257780
  H      -0.303715      1.981953     -3.950428
  H      -1.247826      0.774786     -3.062123
  H       1.015288      1.396999     -2.598301
21
Coordinates from ORCA-job reaction-5-dhsgs_optts_Compound_1 E -1104.432635328448
  Sc      0.515336     -0.189612     -1.966954
  C       0.182233     -0.323295      0.348588
  N      -0.508884     -1.242138      1.051284
  C      -0.525554     -0.938775      2.386779
  C       0.180089      0.203474      2.527365
  N       0.601266      0.559732      1.274093
  C       1.383634      1.756005      1.017131
  H       2.314925      1.722233      1.578253
  H       0.820713      2.641735      1.304346
  H       1.617715      1.826419     -0.042799
  C      -1.186432     -2.395640      0.495117
  H      -0.933014     -2.507207     -0.556674
  H      -2.265932     -2.284391      0.578824
  H      -0.878784     -3.301571      1.012577
  H      -1.023112     -1.548241      3.121882
  H       0.413531      0.776081      3.408843
  C      -0.216124      0.961327     -3.517069
  H       0.066954      0.213061     -4.289674
  H      -0.319748      1.912309     -4.030034
  H      -1.236887      0.702480     -3.117167
  H       0.967115      1.440273     -2.585111
21
Coordinates from ORCA-job reaction-5-dhsgs_optts_Compound_1 E -1104.432888059328
  Sc      0.528723     -0.171645     -1.957395
  C       0.171550     -0.301543      0.354555
  N      -0.516514     -1.227534      1.050839
  C      -0.521825     -0.940879      2.390136
  C       0.187341      0.198092      2.539498
  N       0.599219      0.569402      1.287513
  C       1.392469      1.760085      1.038693
  H       2.355238      1.684365      1.539758
  H       0.867073      2.641530      1.400225
  H       1.563174      1.875269     -0.029867
  C      -1.202509     -2.372439      0.487091
  H      -1.012219     -2.433305     -0.582206
  H      -2.276970     -2.286839      0.637660
  H      -0.848282     -3.292664      0.946648
  H      -1.016361     -1.557678      3.121115
  H       0.427910      0.759725      3.426068
  C      -0.213774      0.932933     -3.533391
  H       0.177178      0.222365     -4.293291
  H      -0.378676      1.876035     -4.044891
  H      -1.227325      0.575585     -3.191093
  H       0.913622      1.473398     -2.588066
21
Coordinates from ORCA-job reaction-5-dhsgs_optts_Compound_1 E -1104.433100456911
  Sc      0.534591     -0.136519     -1.944505
  C       0.156928     -0.285059      0.361626
  N      -0.527918     -1.215524      1.055044
  C      -0.516886     -0.944083      2.397552
  C       0.199235      0.189702      2.552349
  N       0.598822      0.573484      1.300192
  C       1.399601      1.759834      1.054920
  H       2.381271      1.656775      1.512758
  H       0.902994      2.636941      1.464582
  H       1.527279      1.906414     -0.016078
  C      -1.222797     -2.352908      0.486616
  H      -1.091293     -2.367879     -0.593137
  H      -2.288707     -2.291536      0.697066
  H      -0.829904     -3.282748      0.892447
  H      -1.007400     -1.566110      3.126792
  H       0.450956      0.740721      3.442477
  C      -0.206957      0.906739     -3.558316
  H       0.286992      0.267669     -4.317768
  H      -0.446540      1.842871     -4.052731
  H      -1.191889      0.429221     -3.269410
  H       0.860661      1.516255     -2.592876
21
Coordinates from ORCA-job reaction-5-dhsgs_optts_Compound_1 E -1104.433306327092
  Sc      0.555892     -0.167837     -1.944196
  C       0.154303     -0.285753      0.360279
  N      -0.536975     -1.210367      1.054546
  C      -0.530149     -0.932894      2.395679
  C       0.188414      0.200191      2.547725
  N       0.594783      0.576605      1.295452
  C       1.400178      1.759063      1.047738
  H       2.402576      1.629845      1.451091
  H       0.936777      2.627043      1.511792
  H       1.470243      1.942899     -0.023057
  C      -1.223369     -2.353265      0.486945
  H      -1.136763     -2.334515     -0.597376
  H      -2.280875     -2.325430      0.741560
  H      -0.790430     -3.282223      0.852268
  H      -1.026584     -1.549361      3.125599
  H       0.436570      0.755529      3.436173
  C      -0.198003      0.905299     -3.542691
  H       0.309132      0.316957     -4.330083
  H      -0.476165      1.852599     -3.994169
  H      -1.168183      0.381701     -3.273033
  H       0.887668      1.478173     -2.602640
21
Coordinates from ORCA-job reaction-5-dhsgs_optts_Compound_1 E -1104.433453581878
  Sc      0.558804     -0.137522     -1.935275
  C       0.145617     -0.271986      0.363849
  N      -0.547726     -1.198318      1.053902
  C      -0.535925     -0.929830      2.397016
  C       0.187683      0.199079      2.554986
  N       0.592025      0.582220      1.304254
  C       1.409778      1.756606      1.058695
  H       2.422112      1.601884      1.427063
  H       0.977290      2.621672      1.556350
  H       1.451457      1.961303     -0.009736
  C      -1.234155     -2.338956      0.482241
  H      -1.228528     -2.266377     -0.603328
  H      -2.271146     -2.358133      0.810933
  H      -0.748229     -3.268320      0.772766
  H      -1.034437     -1.547955      3.124111
  H       0.439479      0.748258      3.446201
  C      -0.184959      0.881590     -3.559127
  H       0.368931      0.342012     -4.348302
  H      -0.535293      1.810567     -3.998103
  H      -1.116400      0.277713     -3.301693
  H       0.852663      1.518754     -2.597203
21
Coordinates from ORCA-job reaction-5-dhsgs_optts_Compound_1 E -1104.433579851064
  Sc      0.583602     -0.167722     -1.934298
  C       0.146566     -0.276985      0.361174
  N      -0.558583     -1.192882      1.052751
  C      -0.553601     -0.915567      2.393855
  C       0.175538      0.210460      2.548490
  N       0.590886      0.581795      1.297950
  C       1.413004      1.751974      1.047780
  H       2.428293      1.590698      1.404872
  H       0.990363      2.617009      1.553682
  H       1.442130      1.961929     -0.020318
  C      -1.233567     -2.341288      0.483091
  H      -1.305095     -2.227058     -0.596605
  H      -2.244218     -2.416307      0.878250
  H      -0.693566     -3.259922      0.705311
  H      -1.061440     -1.525182      3.121628
  H       0.422059      0.766151      3.437094
  C      -0.178537      0.883410     -3.538176
  H       0.380118      0.396391     -4.355431
  H      -0.561958      1.821170     -3.929019
  H      -1.095284      0.242209     -3.307280
  H       0.882329      1.483978     -2.605198
21
Coordinates from ORCA-job reaction-5-dhsgs_optts_Compound_1 E -1104.433668787288
  Sc      0.580987     -0.157395     -1.930172
  C       0.151268     -0.272608      0.362911
  N      -0.568614     -1.180840      1.049485
  C      -0.571366     -0.901338      2.390111
  C       0.167050      0.218577      2.549034
  N       0.596469      0.583786      1.301440
  C       1.432992      1.744758      1.055426
  H       2.449260      1.565115      1.400887
  H       1.027888      2.610679      1.573997
  H       1.455021      1.965087     -0.010485
  C      -1.235026     -2.330614      0.472063
  H      -1.356048     -2.184611     -0.599611
  H      -2.225058     -2.446361      0.907076
  H      -0.662937     -3.240512      0.644675
  H      -1.090857     -1.504457      3.115043
  H       0.410281      0.774355      3.438473
  C      -0.180144      0.866064     -3.538822
  H       0.409908      0.453561     -4.372400
  H      -0.643542      1.780427     -3.896828
  H      -1.039053      0.135667     -3.321831
  H       0.860560      1.504917     -2.590873
21
Coordinates from ORCA-job reaction-5-dhsgs_optts_Compound_1 E -1104.433678768967
  Sc      0.601229     -0.170589     -1.928526
  C       0.160681     -0.270910      0.364684
  N      -0.574827     -1.169385      1.047560
  C      -0.590880     -0.883566      2.386519
  C       0.154831      0.231028      2.548373
  N       0.601104      0.586677      1.304049
  C       1.455099      1.735765      1.062781
  H       2.473039      1.532751      1.390016
  H       1.073298      2.600093      1.601006
  H       1.463635      1.972240      0.000097
  C      -1.233944     -2.321447      0.465895
  H      -1.401690     -2.152178     -0.596301
  H      -2.203301     -2.472470      0.934930
  H      -0.634587     -3.220931      0.594637
  H      -1.124567     -1.478144      3.108146
  H       0.391072      0.790026      3.437662
  C      -0.185860      0.849964     -3.533305
  H       0.443046      0.538511     -4.380661
  H      -0.724532      1.741521     -3.842345
  H      -0.989308      0.036790     -3.386023
  H       0.815501      1.508514     -2.579595
21
Coordinates from ORCA-job reaction-5-dhsgs_optts_Compound_1 E -1104.433655099398
  Sc      0.603330     -0.181005     -1.930015
  C       0.160686     -0.267145      0.363453
  N      -0.574080     -1.167489      1.045064
  C      -0.595382     -0.880666      2.383781
  C       0.147638      0.235370      2.547198
  N       0.596853      0.591436      1.303898
  C       1.455017      1.737842      1.064286
  H       2.478412      1.521115      1.364626
  H       1.093383      2.594488      1.628294
  H       1.439248      1.993851      0.006178
  C      -1.230272     -2.320457      0.462080
  H      -1.434791     -2.136314     -0.591259
  H      -2.181845     -2.497025      0.957710
  H      -0.612097     -3.211583      0.555681
  H      -1.130867     -1.475425      3.103918
  H       0.380040      0.795201      3.436978
  C      -0.172991      0.844195     -3.538010
  H       0.430998      0.505510     -4.394009
  H      -0.697239      1.745122     -3.843916
  H      -0.990734      0.053071     -3.359758
  H       0.803731      1.504167     -2.566579
21
Coordinates from ORCA-job reaction-5-dhsgs_optts_Compound_1 E -1104.433569959478
  Sc      0.650777     -0.203666     -1.925636
  C       0.162873     -0.279919      0.353012
  N      -0.572543     -1.176033      1.038785
  C      -0.610357     -0.870988      2.373169
  C       0.124670      0.251207      2.530165
  N       0.584212      0.593129      1.286693
  C       1.442986      1.736100      1.034544
  H       2.477351      1.503803      1.281099
  H       1.117089      2.582519      1.634333
  H       1.384592      2.014330     -0.016956
  C      -1.223634     -2.334116      0.460439
  H      -1.493820     -2.129940     -0.574327
  H      -2.139968     -2.552332      1.003230
  H      -0.576123     -3.208527      0.498012
  H      -1.151880     -1.458242      3.094855
  H       0.343709      0.824581      3.414611
  C      -0.163328      0.853487     -3.484403
  H       0.410926      0.485964     -4.350109
  H      -0.650523      1.778329     -3.780488
  H      -1.008228      0.098187     -3.289608
  H       0.860260      1.476386     -2.581819
21
Coordinates from ORCA-job reaction-5-dhsgs_optts_Compound_1 E -1104.433684215648
  Sc      0.629665     -0.186595     -1.925075
  C       0.165622     -0.275140      0.359238
  N      -0.573212     -1.171024      1.041819
  C      -0.604701     -0.874172      2.378080
  C       0.136421      0.243673      2.539137
  N       0.594513      0.590475      1.296562
  C       1.452453      1.735526      1.050304
  H       2.481291      1.512160      1.326197
  H       1.106666      2.587725      1.630569
  H       1.417313      2.001348     -0.005137
  C      -1.228904     -2.323920      0.457767
  H      -1.459759     -2.128841     -0.588069
  H      -2.166029     -2.518403      0.973584
  H      -0.599360     -3.209317      0.527300
  H      -1.145582     -1.463692      3.098428
  H       0.361373      0.810475      3.426352
  C      -0.171040      0.846733     -3.510929
  H       0.421862      0.514537     -4.376392
  H      -0.702429      1.747647     -3.804309
  H      -0.982202      0.050528     -3.322332
  H       0.835076      1.494536     -2.573493
21
Coordinates from ORCA-job reaction-5-dhsgs_optts_Compound_1 E -1104.433675682061
  Sc      0.607100     -0.177952     -1.931002
  C       0.161228     -0.274600      0.361700
  N      -0.571208     -1.174152      1.046572
  C      -0.589554     -0.884840      2.384861
  C       0.152385      0.232241      2.544633
  N       0.598085      0.586252      1.299584
  C       1.449705      1.736137      1.053810
  H       2.466689      1.538914      1.387355
  H       1.063232      2.603576      1.583746
  H       1.463026      1.963047     -0.011078
  C      -1.231120     -2.327722      0.468938
  H      -1.386506     -2.169215     -0.596754
  H      -2.206532     -2.468399      0.928680
  H      -0.638245     -3.229196      0.612729
  H      -1.122204     -1.479308      3.107344
  H       0.386725      0.793775      3.432810
  C      -0.182608      0.856542     -3.521489
  H       0.430925      0.522806     -4.373061
  H      -0.695817      1.764606     -3.825869
  H      -1.009134      0.069381     -3.370649
  H       0.822868      1.502367     -2.583260
21
Coordinates from ORCA-job reaction-5-dhsgs_optts_Compound_1 E -1104.433718017046
  Sc      0.583620     -0.181959     -1.936199
  C       0.155065     -0.272718      0.361047
  N      -0.563259     -1.181316      1.048962
  C      -0.569374     -0.899468      2.389000
  C       0.167181      0.221358      2.546921
  N       0.597064      0.585583      1.299027
  C       1.436664      1.744427      1.054212
  H       2.452115      1.562533      1.400971
  H       1.032695      2.611086      1.572545
  H       1.458741      1.964223     -0.012067
  C      -1.233213     -2.328914      0.471744
  H      -1.298124     -2.212411     -0.608672
  H      -2.246503     -2.406096      0.859468
  H      -0.694858     -3.247664      0.696669
  H      -1.090237     -1.501575      3.113781
  H       0.408553      0.778777      3.435855
  C      -0.182263      0.868285     -3.531881
  H       0.411684      0.499590     -4.382079
  H      -0.672961      1.783125     -3.851348
  H      -1.024055      0.107706     -3.341091
  H       0.840507      1.489688     -2.587267
21
Coordinates from ORCA-job reaction-5-dhsgs_optts_Compound_1 E -1104.433724215884
  Sc      0.630528     -0.163144     -1.925445
  C       0.166806     -0.267275      0.361295
  N      -0.565366     -1.170089      1.041780
  C      -0.580801     -0.889186      2.381917
  C       0.163529      0.225525      2.547507
  N       0.607284      0.587100      1.303939
  C       1.456962      1.739527      1.063507
  H       2.478765      1.536715      1.378636
  H       1.079468      2.598581      1.613235
  H       1.452914      1.984904      0.002530
  C      -1.244062     -2.309306      0.457437
  H      -1.321764     -2.178594     -0.620255
  H      -2.252000     -2.390354      0.857879
  H      -0.704106     -3.231555      0.663770
  H      -1.112982     -1.487560      3.101517
  H       0.401592      0.780102      3.439069
  C      -0.185525      0.837843     -3.525096
  H       0.436518      0.581084     -4.394276
  H      -0.784071      1.703848     -3.794483
  H      -0.937285     -0.027446     -3.377417
  H       0.782635      1.523541     -2.577446
21
Coordinates from ORCA-job reaction-5-dhsgs_optts_Compound_1 E -1104.433752015963
  Sc      0.616033     -0.182598     -1.930759
  C       0.164172     -0.277845      0.358329
  N      -0.566576     -1.177624      1.044484
  C      -0.585575     -0.886298      2.382305
  C       0.154934      0.232050      2.540523
  N       0.600421      0.585014      1.295094
  C       1.448102      1.737557      1.047854
  H       2.469009      1.539674      1.368813
  H       1.066332      2.600481      1.588551
  H       1.448811      1.972685     -0.015354
  C      -1.235372     -2.326486      0.467778
  H      -1.329787     -2.196069     -0.608720
  H      -2.236709     -2.422948      0.881000
  H      -0.679279     -3.240835      0.666436
  H      -1.117389     -1.480603      3.105541
  H       0.389083      0.794633      3.428087
  C      -0.178964      0.857658     -3.516365
  H       0.421176      0.559897     -4.388626
  H      -0.727792      1.755359     -3.787358
  H      -0.976708      0.039597     -3.355458
  H       0.825118      1.500961     -2.572555
21
Coordinates from ORCA-job reaction-5-dhsgs_optts_Compound_1 E -1104.433714319596
  Sc      0.594788     -0.171717     -1.929732
  C       0.153925     -0.267094      0.363090
  N      -0.566322     -1.176478      1.047987
  C      -0.569927     -0.900268      2.389138
  C       0.169419      0.218298      2.550955
  N       0.598716      0.586540      1.304177
  C       1.436008      1.747458      1.060522
  H       2.453264      1.565073      1.401506
  H       1.034101      2.611094      1.585453
  H       1.453620      1.971778     -0.004732
  C      -1.239032     -2.320261      0.465858
  H      -1.363385     -2.168936     -0.604917
  H      -2.228410     -2.434271      0.902722
  H      -0.670270     -3.233317      0.631849
  H      -1.090956     -1.504410      3.112086
  H       0.412738      0.771599      3.441909
  C      -0.177361      0.853532     -3.536484
  H       0.418817      0.481994     -4.384258
  H      -0.672402      1.764624     -3.860504
  H      -1.017243      0.091024     -3.344026
  H       0.838952      1.497998     -2.593000
21
Coordinates from ORCA-job reaction-5-dhsgs_optts_Compound_1 E -1104.433749556977
  Sc      0.613810     -0.176331     -1.929955
  C       0.163108     -0.274233      0.359797
  N      -0.565175     -1.176953      1.044751
  C      -0.580811     -0.890356      2.383654
  C       0.159441      0.227862      2.543865
  N       0.601255      0.585590      1.298464
  C       1.446812      1.740103      1.053151
  H       2.467108      1.545013      1.377725
  H       1.061065      2.602587      1.591766
  H       1.450537      1.974430     -0.010212
  C      -1.236843     -2.322962      0.465686
  H      -1.325527     -2.192766     -0.611304
  H      -2.240564     -2.414607      0.874312
  H      -0.685851     -3.239711      0.667258
  H      -1.110236     -1.487612      3.106223
  H       0.395819      0.787305      3.432831
  C      -0.180926      0.854188     -3.522078
  H       0.421589      0.542990     -4.388282
  H      -0.723415      1.751649     -3.806185
  H      -0.983277      0.043121     -3.353924
  H       0.821121      1.504955     -2.577944
21
Coordinates from ORCA-job reaction-5-dhsgs_optts_Compound_1 E -1104.433750146422
  Sc      0.613903     -0.176294     -1.930048
  C       0.163024     -0.274436      0.359622
  N      -0.565086     -1.177161      1.044747
  C      -0.580483     -0.890515      2.383645
  C       0.159746      0.227735      2.543675
  N       0.601320      0.585441      1.298182
  C       1.446697      1.740053      1.052697
  H       2.467170      1.544976      1.376719
  H       1.061152      2.602389      1.591698
  H       1.449847      1.974638     -0.010613
  C      -1.237124     -2.323107      0.466005
  H      -1.322902     -2.194624     -0.611423
  H      -2.241984     -2.412543      0.872314
  H      -0.687944     -3.240320      0.670412
  H      -1.109754     -1.487776      3.106322
  H       0.396264      0.787217      3.432580
  C      -0.180807      0.854611     -3.521866
  H       0.422457      0.544675     -4.387971
  H      -0.724539      1.751407     -3.805676
  H      -0.982195      0.042381     -3.354473
  H       0.820277      1.505513     -2.576945
