21
Coordinates from ORCA-job reaction-5-dhsgs_optts_Compound_2_IRC_F E -1104.435513485558
  Sc      0.613893     -0.173913     -1.931786
  C       0.162444     -0.274294      0.360067
  N      -0.565241     -1.177175      1.044922
  C      -0.580506     -0.890655      2.383744
  C       0.159836      0.227676      2.543548
  N       0.601187      0.585387      1.298142
  C       1.446759      1.740223      1.052450
  H       2.466878      1.544692      1.377350
  H       1.061011      2.602279      1.591608
  H       1.449879      1.974915     -0.010863
  C      -1.237071     -2.323057      0.466102
  H      -1.323788     -2.195007     -0.611301
  H      -2.242172     -2.412661      0.871650
  H      -0.688123     -3.240433      0.670559
  H      -1.109794     -1.487765      3.106534
  H       0.396353      0.787235      3.432429
  C      -0.187551      0.844859     -3.522083
  H       0.422379      0.547725     -4.388297
  H      -0.714031      1.757596     -3.787375
  H      -0.996110      0.036367     -3.388856
  H       0.914929      1.512035     -2.485468
21
Coordinates from ORCA-job reaction-5-dhsgs_optts_Compound_2_IRC_F E -1104.438321678900
  Sc      0.619862     -0.140737     -1.948641
  C       0.160144     -0.273527      0.359257
  N      -0.565994     -1.177215      1.045435
  C      -0.580202     -0.890831      2.384415
  C       0.160111      0.227247      2.543814
  N       0.600765      0.585546      1.297998
  C       1.446794      1.740222      1.052047
  H       2.466776      1.544564      1.377488
  H       1.061027      2.602274      1.591466
  H       1.449990      1.975241     -0.011294
  C      -1.237009     -2.322957      0.466352
  H      -1.324036     -2.195180     -0.610915
  H      -2.242163     -2.412765      0.871458
  H      -0.688111     -3.240526      0.670713
  H      -1.109846     -1.487915      3.106906
  H       0.396452      0.787106      3.432205
  C      -0.213447      0.824414     -3.533773
  H       0.420339      0.547222     -4.387387
  H      -0.709409      1.752125     -3.779644
  H      -1.009231      0.028404     -3.402260
  H       0.948968      1.512143     -2.452365
21
Coordinates from ORCA-job reaction-5-dhsgs_optts_Compound_2_IRC_F E -1104.442023354749
  Sc      0.629417     -0.119772     -1.952606
  C       0.158053     -0.271877      0.357528
  N      -0.566778     -1.176808      1.044531
  C      -0.579393     -0.890908      2.383663
  C       0.160300      0.226431      2.543546
  N       0.600227      0.586231      1.297311
  C       1.446351      1.739688      1.051607
  H       2.466460      1.544305      1.377631
  H       1.061129      2.602226      1.590859
  H       1.450075      1.976297     -0.011330
  C      -1.236992     -2.322712      0.466368
  H      -1.324155     -2.195279     -0.610550
  H      -2.242443     -2.412976      0.871373
  H      -0.688068     -3.240433      0.670969
  H      -1.109748     -1.488173      3.107307
  H       0.396789      0.787136      3.432245
  C      -0.233960      0.807180     -3.540997
  H       0.415574      0.542140     -4.391862
  H      -0.714088      1.752197     -3.776037
  H      -1.030939      0.015846     -3.424231
  H       0.993864      1.523876     -2.413602
21
Coordinates from ORCA-job reaction-5-dhsgs_optts_Compound_2_IRC_F E -1104.446093629586
  Sc      0.639307     -0.098037     -1.956871
  C       0.156007     -0.270325      0.357309
  N      -0.567272     -1.175728      1.043719
  C      -0.578931     -0.891202      2.383326
  C       0.160853      0.226066      2.542355
  N       0.598638      0.585680      1.296824
  C       1.446481      1.740293      1.051152
  H       2.466073      1.543918      1.377755
  H       1.061171      2.602267      1.590323
  H       1.450232      1.977541     -0.011387
  C      -1.237339     -2.322937      0.466310
  H      -1.324459     -2.195480     -0.610642
  H      -2.242495     -2.413104      0.871114
  H      -0.688050     -3.240057      0.671216
  H      -1.109199     -1.488188      3.106901
  H       0.397102      0.786876      3.431996
  C      -0.253758      0.789788     -3.548949
  H       0.406453      0.537912     -4.392969
  H      -0.717994      1.747621     -3.771466
  H      -1.050281      0.007269     -3.448702
  H       1.038761      1.534860     -2.374882
21
Coordinates from ORCA-job reaction-5-dhsgs_optts_Compound_2_IRC_F E -1104.450238209546
  Sc      0.650788     -0.078672     -1.957432
  C       0.153981     -0.268978      0.355489
  N      -0.568202     -1.175200      1.042741
  C      -0.578757     -0.891843      2.382767
  C       0.161401      0.226106      2.542413
  N       0.598149      0.586766      1.295890
  C       1.446079      1.740077      1.050970
  H       2.465662      1.543522      1.377873
  H       1.061138      2.602603      1.589935
  H       1.450514      1.979062     -0.011468
  C      -1.237516     -2.322617      0.465984
  H      -1.324839     -2.195775     -0.610719
  H      -2.242764     -2.413268      0.870865
  H      -0.687918     -3.239744      0.671500
  H      -1.108617     -1.488343      3.106512
  H       0.397460      0.786427      3.431423
  C      -0.273020      0.776569     -3.554387
  H       0.397679      0.532557     -4.396528
  H      -0.722399      1.741693     -3.766226
  H      -1.071915     -0.002058     -3.475231
  H       1.084005      1.546924     -2.337006
21
Coordinates from ORCA-job reaction-5-dhsgs_optts_Compound_2_IRC_F E -1104.454286894359
  Sc      0.662942     -0.060339     -1.956227
  C       0.152068     -0.267398      0.354836
  N      -0.568983     -1.174231      1.041509
  C      -0.578396     -0.892157      2.381918
  C       0.161938      0.225997      2.541448
  N       0.596801      0.586863      1.295074
  C       1.445988      1.740755      1.050683
  H       2.465159      1.543106      1.377998
  H       1.061150      2.602868      1.589556
  H       1.450951      1.980742     -0.011259
  C      -1.237896     -2.322698      0.465673
  H      -1.325306     -2.196098     -0.611071
  H      -2.242944     -2.413392      0.870509
  H      -0.687854     -3.239154      0.671734
  H      -1.107889     -1.488543      3.105846
  H       0.397931      0.785973      3.430870
  C      -0.289935      0.759210     -3.560224
  H       0.386450      0.527826     -4.398325
  H      -0.727927      1.736505     -3.760434
  H      -1.092677     -0.008911     -3.503506
  H       1.129170      1.559588     -2.300261
21
Coordinates from ORCA-job reaction-5-dhsgs_optts_Compound_2_IRC_F E -1104.458123682664
  Sc      0.675880     -0.043076     -1.952708
  C       0.150255     -0.265987      0.353209
  N      -0.570029     -1.173493      1.040399
  C      -0.578055     -0.892377      2.380917
  C       0.162228      0.225764      2.540843
  N       0.596059      0.588006      1.294264
  C       1.445673      1.740957      1.050673
  H       2.464655      1.542708      1.378181
  H       1.061056      2.603442      1.589432
  H       1.451556      1.982694     -0.011127
  C      -1.238288     -2.322425      0.464982
  H      -1.325853     -2.196520     -0.611506
  H      -2.243265     -2.413527      0.870145
  H      -0.687677     -3.238630      0.671990
  H      -1.107103     -1.488877      3.105052
  H       0.398502      0.785459      3.430194
  C      -0.307683      0.745618     -3.564115
  H       0.375912      0.522278     -4.402527
  H      -0.732074      1.727922     -3.752717
  H      -1.114636     -0.015857     -3.533311
  H       1.173855      1.572647     -2.265029
21
Coordinates from ORCA-job reaction-5-dhsgs_optts_Compound_2_IRC_F E -1104.461715856090
  Sc      0.688781     -0.025897     -1.948312
  C       0.148631     -0.264451      0.352237
  N      -0.571038     -1.172621      1.038906
  C      -0.577697     -0.892456      2.379615
  C       0.162513      0.225610      2.539861
  N       0.595015      0.588796      1.293409
  C       1.445433      1.741759      1.050628
  H       2.464131      1.542331      1.378470
  H       1.061004      2.603994      1.589429
  H       1.452342      1.984798     -0.010624
  C      -1.238718     -2.322353      0.464303
  H      -1.326477     -2.196962     -0.612208
  H      -2.243559     -2.413621      0.869678
  H      -0.687582     -3.237847      0.672157
  H      -1.106258     -1.489338      3.104073
  H       0.399161      0.784909      3.429494
  C      -0.322252      0.726396     -3.568522
  H       0.363432      0.517323     -4.405197
  H      -0.736991      1.720986     -3.743935
  H      -1.136167     -0.021069     -3.564156
  H       1.217960      1.585906     -2.231354
21
Coordinates from ORCA-job reaction-5-dhsgs_optts_Compound_2_IRC_F E -1104.465042947079
  Sc      0.701835     -0.008937     -1.942596
  C       0.147234     -0.262867      0.350787
  N      -0.571991     -1.171615      1.037454
  C      -0.577404     -0.892450      2.378245
  C       0.162630      0.225394      2.538870
  N       0.594055      0.589807      1.292661
  C       1.445229      1.742428      1.050964
  H       2.463586      1.542053      1.378885
  H       1.060883      2.604788      1.589723
  H       1.453319      1.987190     -0.010110
  C      -1.239261     -2.322073      0.463276
  H      -1.327155     -2.197467     -0.613063
  H      -2.243890     -2.413682      0.869141
  H      -0.687407     -3.237096      0.672278
  H      -1.105331     -1.489882      3.102841
  H       0.399879      0.784308      3.428764
  C      -0.338905      0.710934     -3.571471
  H       0.352142      0.511486     -4.410360
  H      -0.739531      1.709819     -3.732515
  H      -1.158487     -0.026633     -3.595813
  H       1.261331      1.599295     -2.199425
21
Coordinates from ORCA-job reaction-5-dhsgs_optts_Compound_2_IRC_F E -1104.468082330500
  Sc      0.713852      0.008723     -1.937288
  C       0.146079     -0.261240      0.349605
  N      -0.572979     -1.170666      1.035677
  C      -0.577026     -0.892216      2.376455
  C       0.162601      0.225102      2.537668
  N       0.593231      0.591011      1.291965
  C       1.444995      1.743499      1.051313
  H       2.463081      1.541854      1.379524
  H       1.060781      2.605583      1.590276
  H       1.454497      1.989761     -0.009088
  C      -1.239708     -2.321837      0.462146
  H      -1.327873     -2.197965     -0.614159
  H      -2.244190     -2.413644      0.868488
  H      -0.687311     -3.236105      0.672253
  H      -1.104445     -1.490621      3.101443
  H       0.400651      0.783708      3.428086
  C      -0.351747      0.688870     -3.575192
  H       0.338888      0.506168     -4.413480
  H      -0.742808      1.701159     -3.719776
  H      -1.180424     -0.031052     -3.627562
  H       1.303939      1.612644     -2.169220
21
Coordinates from ORCA-job reaction-5-dhsgs_optts_Compound_2_IRC_F E -1104.470803390888
  Sc      0.725089      0.026138     -1.931337
  C       0.145227     -0.259392      0.347965
  N      -0.573715     -1.169445      1.033804
  C      -0.576850     -0.892101      2.374684
  C       0.162581      0.225000      2.536566
  N       0.592369      0.592125      1.291291
  C       1.444879      1.744483      1.052236
  H       2.462605      1.541838      1.380389
  H       1.060614      2.606613      1.591242
  H       1.455890      1.992655     -0.008028
  C      -1.240257     -2.321369      0.460709
  H      -1.328587     -2.198462     -0.615484
  H      -2.244446     -2.413495      0.867715
  H      -0.687125     -3.235159      0.672102
  H      -1.103488     -1.491387      3.099681
  H       0.401378      0.782990      3.427368
  C      -0.368744      0.673363     -3.577265
  H       0.327789      0.499623     -4.419722
  H      -0.742926      1.686603     -3.704155
  H      -1.202473     -0.036213     -3.658796
  H       1.345537      1.625919     -2.140986
21
Coordinates from ORCA-job reaction-5-dhsgs_optts_Compound_2_IRC_F E -1104.473092704519
  Sc      0.733424      0.044144     -1.927505
  C       0.144639     -0.257538      0.346681
  N      -0.574541     -1.168454      1.031737
  C      -0.576119     -0.891200      2.372227
  C       0.162079      0.224183      2.534897
  N       0.591877      0.593687      1.290894
  C       1.444754      1.745992      1.052997
  H       2.462214      1.541944      1.381590
  H       1.060477      2.607521      1.592560
  H       1.457479      1.995636     -0.006204
  C      -1.240528     -2.320919      0.459098
  H      -1.329265     -2.198888     -0.617006
  H      -2.244615     -2.413143      0.866809
  H      -0.687042     -3.233921      0.671714
  H      -1.102770     -1.492463      3.097852
  H       0.402141      0.782429      3.426940
  C      -0.377530      0.646464     -3.581042
  H       0.313573      0.494308     -4.421393
  H      -0.746071      1.679950     -3.688749
  H      -1.223009     -0.039848     -3.687710
  H       1.385088      1.638199     -2.115154
21
Coordinates from ORCA-job reaction-5-dhsgs_optts_Compound_2_IRC_F E -1104.473730610259
  Sc      0.735534      0.048647     -1.925967
  C       0.144544     -0.256917      0.346101
  N      -0.574620     -1.168032      1.031120
  C      -0.576055     -0.891100      2.371714
  C       0.162021      0.224128      2.534617
  N       0.591684      0.593988      1.290724
  C       1.444769      1.746294      1.053487
  H       2.462128      1.542049      1.381992
  H       1.060412      2.607867      1.593075
  H       1.457976      1.996557     -0.005795
  C      -1.240659     -2.320696      0.458585
  H      -1.329425     -2.198986     -0.617504
  H      -2.244624     -2.413001      0.866513
  H      -0.686965     -3.233633      0.671559
  H      -1.102521     -1.492701      3.097182
  H       0.402287      0.782177      3.426740
  C      -0.383324      0.645002     -3.581193
  H       0.311275      0.492228     -4.423835
  H      -0.745070      1.673694     -3.683676
  H      -1.228442     -0.041327     -3.695059
  H       1.395431      1.641363     -2.108703
21
Coordinates from ORCA-job reaction-5-dhsgs_optts_Compound_2_IRC_F E -1104.474745059596
  Sc      0.738788      0.057089     -1.923859
  C       0.144339     -0.255808      0.345407
  N      -0.574595     -1.167089      1.029529
  C      -0.577198     -0.892713      2.370973
  C       0.162976      0.225764      2.534923
  N       0.591354      0.594466      1.289952
  C       1.444788      1.747038      1.054419
  H       2.461973      1.542255      1.382783
  H       1.060332      2.608424      1.594031
  H       1.458897      1.998223     -0.004884
  C      -1.240856     -2.320354      0.457773
  H      -1.329704     -2.199124     -0.618466
  H      -2.244614     -2.412713      0.865931
  H      -0.686867     -3.233022      0.671221
  H      -1.101807     -1.492822      3.095643
  H       0.402395      0.781403      3.426004
  C      -0.390401      0.636992     -3.582379
  H       0.305638      0.488940     -4.426340
  H      -0.744946      1.666469     -3.674935
  H      -1.238136     -0.043544     -3.708053
  H       1.414120      1.646919     -2.097123
21
Coordinates from ORCA-job reaction-5-dhsgs_optts_Compound_2_IRC_F E -1104.475804670794
  Sc      0.741833      0.067038     -1.921955
  C       0.144160     -0.254464      0.344502
  N      -0.574763     -1.166202      1.027954
  C      -0.576992     -0.892401      2.369836
  C       0.162736      0.225501      2.534453
  N       0.591100      0.595305      1.289532
  C       1.444815      1.748043      1.055330
  H       2.461828      1.542530      1.383842
  H       1.060229      2.609055      1.595294
  H       1.460058      2.000231     -0.003569
  C      -1.240966     -2.319913      0.456620
  H      -1.330013     -2.199266     -0.619639
  H      -2.244587     -2.412292      0.865203
  H      -0.686757     -3.232219      0.670745
  H      -1.101220     -1.493281      3.093946
  H       0.402641      0.780752      3.425431
  C      -0.396637      0.624459     -3.584006
  H       0.298375      0.485363     -4.428341
  H      -0.745851      1.660580     -3.664999
  H      -1.249059     -0.045765     -3.722458
  H       1.435553      1.652983     -2.084051
21
Coordinates from ORCA-job reaction-5-dhsgs_optts_Compound_2_IRC_F E -1104.476783529515
  Sc      0.744468      0.076934     -1.919946
  C       0.144026     -0.252965      0.343469
  N      -0.574966     -1.165339      1.026451
  C      -0.576924     -0.892426      2.368078
  C       0.162823      0.225603      2.533486
  N       0.590899      0.596281      1.289296
  C       1.444864      1.749007      1.056502
  H       2.461679      1.542898      1.385063
  H       1.060102      2.609754      1.596791
  H       1.461333      2.002394     -0.002160
  C      -1.241049     -2.319292      0.455345
  H      -1.330280     -2.199360     -0.620916
  H      -2.244502     -2.411770      0.864371
  H      -0.686595     -3.231377      0.670162
  H      -1.100804     -1.493968      3.092347
  H       0.402925      0.780219      3.425196
  C      -0.404471      0.615194     -3.585194
  H       0.291703      0.481444     -4.431310
  H      -0.745859      1.651910     -3.654560
  H      -1.259935     -0.048264     -3.736273
  H       1.456911      1.658646     -2.071316
21
Coordinates from ORCA-job reaction-5-dhsgs_optts_Compound_2_IRC_F E -1104.477694506633
  Sc      0.746369      0.087115     -1.918390
  C       0.143945     -0.251323      0.342291
  N      -0.575000     -1.164215      1.024628
  C      -0.576846     -0.892348      2.366698
  C       0.162742      0.225562      2.532999
  N       0.590662      0.597210      1.288873
  C       1.445003      1.750266      1.057701
  H       2.461560      1.543340      1.386507
  H       1.059974      2.610472      1.598534
  H       1.462749      2.004721     -0.000471
  C      -1.241098     -2.318710      0.453857
  H      -1.330513     -2.199388     -0.622354
  H      -2.244385     -2.411132      0.863416
  H      -0.686422     -3.230402      0.669437
  H      -1.100239     -1.494552      3.090336
  H       0.403127      0.779470      3.424690
  C      -0.410517      0.602570     -3.586830
  H       0.284095      0.477657     -4.433408
  H      -0.746979      1.645489     -3.644152
  H      -1.270673     -0.050473     -3.749518
  H       1.478556      1.663904     -2.058664
21
Coordinates from ORCA-job reaction-5-dhsgs_optts_Compound_2_IRC_F E -1104.478524877634
  Sc      0.747869      0.097185     -1.916763
  C       0.143853     -0.249500      0.341231
  N      -0.575107     -1.163164      1.022766
  C      -0.576683     -0.892272      2.364761
  C       0.162767      0.225552      2.532018
  N       0.590540      0.598372      1.288575
  C       1.445100      1.751471      1.059216
  H       2.461460      1.543889      1.388174
  H       1.059831      2.611262      1.600555
  H       1.464318      2.007255      0.001340
  C      -1.241074     -2.317879      0.452289
  H      -1.330693     -2.199338     -0.623983
  H      -2.244195     -2.410371      0.862296
  H      -0.686191     -3.229354      0.668552
  H      -1.099809     -1.495347      3.088312
  H       0.403360      0.778788      3.424433
  C      -0.418102      0.592993     -3.587977
  H       0.277071      0.473551     -4.436499
  H      -0.747389      1.636477     -3.633487
  H      -1.281229     -0.052924     -3.761963
  H       1.500139      1.668561     -2.046359
21
Coordinates from ORCA-job reaction-5-dhsgs_optts_Compound_2_IRC_F E -1104.479294394808
  Sc      0.748707      0.107525     -1.915501
  C       0.143841     -0.247462      0.339782
  N      -0.575076     -1.161827      1.020708
  C      -0.576671     -0.892369      2.363046
  C       0.162818      0.225659      2.531464
  N       0.590361      0.599539      1.288235
  C       1.445334      1.752983      1.060884
  H       2.461347      1.544545      1.390132
  H       1.059681      2.612088      1.602896
  H       1.466075      2.010032      0.003459
  C      -1.241026     -2.317019      0.450433
  H      -1.330819     -2.199185     -0.625825
  H      -2.243949     -2.409456      0.860978
  H      -0.685919     -3.228144      0.667469
  H      -1.099226     -1.496066      3.085842
  H       0.403511      0.777866      3.423946
  C      -0.423997      0.580746     -3.589492
  H       0.269104      0.469469     -4.438910
  H      -0.748823      1.629173     -3.622846
  H      -1.291926     -0.055363     -3.773845
  H       1.522248      1.672670     -2.034049
21
Coordinates from ORCA-job reaction-5-dhsgs_optts_Compound_2_IRC_F E -1104.479980070254
  Sc      0.749230      0.117603     -1.914152
  C       0.143773     -0.245203      0.338702
  N      -0.575042     -1.160464      1.018349
  C      -0.576738     -0.892686      2.360904
  C       0.163095      0.226013      2.530645
  N       0.590293      0.600899      1.287796
  C       1.445488      1.754483      1.062841
  H       2.461291      1.545321      1.392412
  H       1.059514      2.613019      1.605595
  H       1.468015      2.013043      0.005809
  C      -1.240864     -2.315895      0.448444
  H      -1.330858     -2.198889     -0.627890
  H      -2.243642     -2.408390      0.859425
  H      -0.685583     -3.226801      0.666158
  H      -1.098712     -1.496947      3.083249
  H       0.403659      0.776909      3.423617
  C      -0.431619      0.571170     -3.590522
  H       0.261716      0.465103     -4.442308
  H      -0.749715      1.619503     -3.612272
  H      -1.302011     -0.057882     -3.784582
  H       1.544226      1.675917     -2.022200
21
Coordinates from ORCA-job reaction-5-dhsgs_optts_Compound_2_IRC_F E -1104.480586685099
  Sc      0.749080      0.127473     -1.913270
  C       0.143825     -0.242744      0.337051
  N      -0.574911     -1.158828      1.016045
  C      -0.576369     -0.892347      2.358904
  C       0.162884      0.225633      2.529877
  N       0.590136      0.602272      1.287585
  C       1.445868      1.756378      1.064992
  H       2.461170      1.546210      1.394998
  H       1.059354      2.613928      1.608581
  H       1.470128      2.016279      0.008430
  C      -1.240715     -2.314774      0.446162
  H      -1.330810     -2.198425     -0.630230
  H      -2.243244     -2.407155      0.857608
  H      -0.685188     -3.225281      0.664601
  H      -1.098200     -1.497928      3.080393
  H       0.403811      0.775887      3.423318
  C      -0.436280      0.558657     -3.591972
  H       0.253316      0.460912     -4.444610
  H      -0.751978      1.612652     -3.602289
  H      -1.312231     -0.060648     -3.794232
  H       1.566034      1.678259     -2.010843
21
Coordinates from ORCA-job reaction-5-dhsgs_optts_Compound_2_IRC_F E -1104.481098505320
  Sc      0.749056      0.136586     -1.912024
  C       0.143756     -0.240078      0.336175
  N      -0.574743     -1.157164      1.013302
  C      -0.576792     -0.893250      2.356541
  C       0.163565      0.226553      2.529205
  N       0.590112      0.603799      1.287078
  C       1.446038      1.758059      1.067397
  H       2.461165      1.547214      1.397941
  H       1.059157      2.615020      1.611939
  H       1.472393      2.019704      0.011279
  C      -1.240382     -2.313285      0.443735
  H      -1.330636     -2.197758     -0.632720
  H      -2.242829     -2.405786      0.855524
  H      -0.684723     -3.223635      0.662785
  H      -1.097609     -1.498882      3.077302
  H       0.403865      0.774630      3.422970
  C      -0.444621      0.550941     -3.592520
  H       0.246278      0.456383     -4.448595
  H      -0.753043      1.601856     -3.592770
  H      -1.320919     -0.063320     -3.802229
  H       1.587129      1.679526     -2.000360
21
Coordinates from ORCA-job reaction-5-dhsgs_optts_Compound_2_IRC_F E -1104.481196289371
  Sc      0.748888      0.138094     -1.911978
  C       0.143806     -0.239582      0.335704
  N      -0.574773     -1.156907      1.012977
  C      -0.576407     -0.892737      2.356131
  C       0.163239      0.226023      2.528933
  N       0.590124      0.604151      1.287194
  C       1.446147      1.758467      1.067817
  H       2.461127      1.547406      1.398508
  H       1.059124      2.615182      1.612562
  H       1.472815      2.020336      0.011835
  C      -1.240324     -2.313029      0.443219
  H      -1.330587     -2.197602     -0.633212
  H      -2.242741     -2.405511      0.855106
  H      -0.684627     -3.223312      0.662420
  H      -1.097583     -1.499163      3.076799
  H       0.403923      0.774490      3.423025
  C      -0.444661      0.548384     -3.592865
  H       0.244602      0.455681     -4.448716
  H      -0.753753      1.601256     -3.591290
  H      -1.322686     -0.063954     -3.803441
  H       1.590728      1.679568     -1.998662
21
Coordinates from ORCA-job reaction-5-dhsgs_optts_Compound_2_IRC_F E -1104.481433867996
  Sc      0.748561      0.142439     -1.911670
  C       0.143874     -0.238100      0.334785
  N      -0.574756     -1.156040      1.011771
  C      -0.575911     -0.892173      2.354858
  C       0.162914      0.225430      2.528314
  N       0.590130      0.605085      1.287273
  C       1.446367      1.759549      1.069127
  H       2.461074      1.547986      1.400227
  H       1.059018      2.615728      1.614452
  H       1.474071      2.022221      0.013469
  C      -1.240122     -2.312200      0.441748
  H      -1.330428     -2.197116     -0.634673
  H      -2.242493     -2.404701      0.853845
  H      -0.684337     -3.222360      0.661313
  H      -1.097413     -1.499875      3.075223
  H       0.404028      0.773947      3.423079
  C      -0.446774      0.542750     -3.593292
  H       0.240370      0.453463     -4.449997
  H      -0.755207      1.597653     -3.586934
  H      -1.327323     -0.065662     -3.806797
  H       1.601266      1.679604     -1.993744
21
Coordinates from ORCA-job reaction-5-dhsgs_optts_Compound_2_IRC_F E -1104.481673075947
  Sc      0.748366      0.146965     -1.911159
  C       0.143903     -0.236394      0.334104
  N      -0.574657     -1.154982      1.010218
  C      -0.575807     -0.892198      2.353448
  C       0.162985      0.225442      2.527828
  N       0.590135      0.606083      1.287174
  C       1.446547      1.760693      1.070688
  H       2.461048      1.548666      1.402246
  H       1.058892      2.616391      1.616649
  H       1.475503      2.024362      0.015339
  C      -1.239868     -2.311203      0.440088
  H      -1.330201     -2.196487     -0.636345
  H      -2.242198     -2.403762      0.852336
  H      -0.684000     -3.221250      0.659987
  H      -1.097130     -1.500574      3.073326
  H       0.404076      0.773187      3.423024
  C      -0.450479      0.537980     -3.593554
  H       0.236093      0.450897     -4.451898
  H      -0.756434      1.592385     -3.582299
  H      -1.331846     -0.067483     -3.809967
  H       1.612721      1.679330     -1.988588
21
Coordinates from ORCA-job reaction-5-dhsgs_optts_Compound_2_IRC_F E -1104.481898503235
  Sc      0.748059      0.151346     -1.910814
  C       0.143981     -0.234599      0.333207
  N      -0.574525     -1.153814      1.008647
  C      -0.575644     -0.892129      2.352056
  C       0.162957      0.225312      2.527405
  N       0.590123      0.607122      1.287143
  C       1.446821      1.762011      1.072371
  H       2.460977      1.549402      1.404422
  H       1.058767      2.617047      1.618965
  H       1.477005      2.026606      0.017342
  C      -1.239606     -2.310160      0.438306
  H      -1.329920     -2.195736     -0.638168
  H      -2.241870     -2.402744      0.850664
  H      -0.683633     -3.220049      0.658518
  H      -1.096839     -1.501317      3.071325
  H       0.404128      0.772384      3.423006
  C      -0.452872      0.532088     -3.593959
  H       0.231341      0.448328     -4.453326
  H      -0.758250      1.588289     -3.577864
  H      -1.336667     -0.069630     -3.812792
  H       1.624234      1.678713     -1.983613
21
Coordinates from ORCA-job reaction-5-dhsgs_optts_Compound_2_IRC_F E -1104.482108184527
  Sc      0.747903      0.155454     -1.910376
  C       0.144058     -0.232699      0.332488
  N      -0.574391     -1.152620      1.006965
  C      -0.575573     -0.892211      2.350556
  C       0.163062      0.225368      2.526961
  N       0.590147      0.608229      1.287092
  C       1.447032      1.763283      1.074150
  H       2.460946      1.550190      1.406776
  H       1.058618      2.617786      1.621438
  H       1.478576      2.028949      0.019447
  C      -1.239284     -2.308986      0.436394
  H      -1.329573     -2.194855     -0.640094
  H      -2.241535     -2.401657      0.848834
  H      -0.683231     -3.218772      0.656902
  H      -1.096549     -1.502103      3.069246
  H       0.404164      0.771511      3.423019
  C      -0.456492      0.527481     -3.594023
  H       0.226913      0.445612     -4.455230
  H      -0.759791      1.582994     -3.573636
  H      -1.340940     -0.071789     -3.815022
  H       1.635637      1.677710     -1.978931
21
Coordinates from ORCA-job reaction-5-dhsgs_optts_Compound_2_IRC_F E -1104.482304269859
  Sc      0.747677      0.159320     -1.910111
  C       0.144189     -0.230719      0.331570
  N      -0.574241     -1.151345      1.005288
  C      -0.575395     -0.892124      2.349080
  C       0.163015      0.225203      2.526574
  N       0.590174      0.609396      1.287130
  C       1.447342      1.764733      1.076042
  H       2.460860      1.551037      1.409288
  H       1.058468      2.618512      1.624015
  H       1.480209      2.031379      0.021691
  C      -1.238941     -2.307743      0.434352
  H      -1.329160     -2.193829     -0.642175
  H      -2.241167     -2.400488      0.846819
  H      -0.682798     -3.217403      0.655124
  H      -1.096257     -1.502932      3.067066
  H       0.404204      0.770597      3.423076
  C      -0.458672      0.521711     -3.594258
  H       0.221999      0.442902     -4.456575
  H      -0.761970      1.579016     -3.569669
  H      -1.345486     -0.074306     -3.816820
  H       1.646992      1.676339     -1.974518
21
Coordinates from ORCA-job reaction-5-dhsgs_optts_Compound_2_IRC_F E -1104.482485567941
  Sc      0.747687      0.162829     -1.909716
  C       0.144320     -0.228646      0.330906
  N      -0.574058     -1.150020      1.003481
  C      -0.575390     -0.892304      2.347504
  C       0.163187      0.225355      2.526187
  N       0.590226      0.610589      1.287119
  C       1.447560      1.766091      1.078030
  H       2.460832      1.551938      1.411970
  H       1.058289      2.619335      1.626730
  H       1.481894      2.033885      0.024005
  C      -1.238543     -2.306380      0.432191
  H      -1.328671     -2.192650     -0.644352
  H      -2.240791     -2.399253      0.844634
  H      -0.682336     -3.215960      0.653186
  H      -1.095964     -1.503788      3.064826
  H       0.404214      0.769600      3.423162
  C      -0.462488      0.517681     -3.594011
  H       0.217581      0.440034     -4.458539
  H      -0.763736      1.573486     -3.565972
  H      -1.349301     -0.076803     -3.817928
  H       1.658105      1.674581     -1.970483
21
Coordinates from ORCA-job reaction-5-dhsgs_optts_Compound_2_IRC_F E -1104.482645646934
  Sc      0.747581      0.165875     -1.909612
  C       0.144520     -0.226626      0.329969
  N      -0.573854     -1.148655      1.001828
  C      -0.575222     -0.892213      2.346078
  C       0.163104      0.225143      2.525900
  N       0.590262      0.611763      1.287250
  C       1.447942      1.767656      1.080021
  H       2.460705      1.552856      1.414659
  H       1.058125      2.620059      1.629371
  H       1.483541      2.036326      0.026356
  C      -1.238158     -2.305037      0.430001
  H      -1.328133     -2.191361     -0.646592
  H      -2.240395     -2.397994      0.842358
  H      -0.681867     -3.214495      0.651168
  H      -1.095685     -1.504636      3.062599
  H       0.404234      0.768630      3.423305
  C      -0.463618      0.511764     -3.594244
  H       0.212572      0.437379     -4.459352
  H      -0.766407      1.570566     -3.562753
  H      -1.353466     -0.079664     -3.818556
  H       1.668560      1.672555     -1.966961
21
Coordinates from ORCA-job reaction-5-dhsgs_optts_Compound_2_IRC_F E -1104.482783857150
  Sc      0.747880      0.168393     -1.909212
  C       0.144686     -0.224630      0.329568
  N      -0.573645     -1.147387      1.000071
  C      -0.575359     -0.892580      2.344595
  C       0.163419      0.225518      2.525617
  N       0.590353      0.612890      1.287236
  C       1.448069      1.768835      1.081963
  H       2.460729      1.553760      1.417339
  H       1.057919      2.620912      1.631992
  H       1.485126      2.038680      0.028561
  C      -1.237716     -2.303621      0.427850
  H      -1.327554     -2.190007     -0.648745
  H      -2.240038     -2.396765      0.840079
  H      -0.681406     -3.213074      0.649133
  H      -1.095429     -1.505445      3.060481
  H       0.404203      0.767616      3.423442
  C      -0.468245      0.509656     -3.593335
  H       0.209052      0.434624     -4.461635
  H      -0.767846      1.564521     -3.559957
  H      -1.356140     -0.082122     -3.818445
  H       1.678100      1.670346     -1.964009
21
Coordinates from ORCA-job reaction-5-dhsgs_optts_Compound_2_IRC_F E -1104.482822060001
  Sc      0.747868      0.168873     -1.909245
  C       0.144754     -0.224205      0.329301
  N      -0.573614     -1.147108      0.999784
  C      -0.575184     -0.892354      2.344292
  C       0.163259      0.225252      2.525504
  N       0.590372      0.613162      1.287345
  C       1.448190      1.769218      1.082385
  H       2.460677      1.553968      1.417930
  H       1.057883      2.621046      1.632544
  H       1.485471      2.039187      0.029084
  C      -1.237628     -2.303323      0.427348
  H      -1.327416     -2.189681     -0.649249
  H      -2.239947     -2.396480      0.839546
  H      -0.681302     -3.212746      0.648658
  H      -1.095399     -1.505657      3.060031
  H       0.404220      0.767436      3.423528
  C      -0.467848      0.508017     -3.593581
  H       0.207806      0.434099     -4.461454
  H      -0.768637      1.564481     -3.559413
  H      -1.357061     -0.082834     -3.818376
  H       1.680136      1.669812     -1.963433
21
Coordinates from ORCA-job reaction-5-dhsgs_optts_Compound_2_IRC_F E -1104.482893966309
  Sc      0.747947      0.169990     -1.909225
  C       0.144897     -0.223168      0.328849
  N      -0.573536     -1.146456      0.999027
  C      -0.574892     -0.892012      2.343503
  C       0.163045      0.224858      2.525213
  N       0.590429      0.613804      1.287538
  C       1.448381      1.770005      1.083398
  H       2.460614      1.554466      1.419368
  H       1.057780      2.621431      1.633899
  H       1.486302      2.040410      0.030309
  C      -1.237392     -2.302569      0.426144
  H      -1.327078     -2.188890     -0.650443
  H      -2.239744     -2.395801      0.838267
  H      -0.681049     -3.211969      0.647514
  H      -1.095334     -1.506165      3.058967
  H       0.404246      0.766986      3.423734
  C      -0.468393      0.505420     -3.593549
  H       0.205394      0.432749     -4.461795
  H      -0.770064      1.563061     -3.558134
  H      -1.358845     -0.084405     -3.818103
  H       1.684959      1.668509     -1.962093
21
Coordinates from ORCA-job reaction-5-dhsgs_optts_Compound_2_IRC_F E -1104.482971216524
  Sc      0.748159      0.171152     -1.909110
  C       0.145049     -0.221980      0.328515
  N      -0.573406     -1.145690      0.998059
  C      -0.574821     -0.891996      2.342641
  C       0.163060      0.224816      2.525021
  N       0.590497      0.614494      1.287639
  C       1.448521      1.770795      1.084572
  H       2.460591      1.555038      1.421021
  H       1.057649      2.621918      1.635453
  H       1.487240      2.041794      0.031668
  C      -1.237111     -2.301687      0.424785
  H      -1.326676     -2.187955     -0.651799
  H      -2.239520     -2.395027      0.836790
  H      -0.680763     -3.211085      0.646188
  H      -1.095218     -1.506680      3.057718
  H       0.404234      0.766399      3.423896
  C      -0.470149      0.503572     -3.593120
  H       0.203079      0.431153     -4.462685
  H      -0.771321      1.560430     -3.556762
  H      -1.360459     -0.086088     -3.817598
  H       1.690289      1.666972     -1.960688
21
Coordinates from ORCA-job reaction-5-dhsgs_optts_Compound_2_IRC_F E -1104.483046499706
  Sc      0.748367      0.172219     -1.909053
  C       0.145224     -0.220785      0.328110
  N      -0.573257     -1.144888      0.997096
  C      -0.574773     -0.892004      2.341815
  C       0.163061      0.224767      2.524898
  N       0.590564      0.615186      1.287763
  C       1.448713      1.771664      1.085781
  H       2.460534      1.555631      1.422707
  H       1.057520      2.622382      1.637009
  H       1.488185      2.043183      0.033064
  C      -1.236831     -2.300793      0.423395
  H      -1.326248     -2.186961     -0.653205
  H      -2.239281     -2.394227      0.835247
  H      -0.680471     -3.210174      0.644803
  H      -1.095090     -1.507181      3.056430
  H       0.404212      0.765788      3.424054
  C      -0.471134      0.501106     -3.592960
  H       0.200471      0.429581     -4.463160
  H      -0.772871      1.558488     -3.555459
  H      -1.362218     -0.087909     -3.816955
  H       1.695577      1.665349     -1.959378
21
Coordinates from ORCA-job reaction-5-dhsgs_optts_Compound_2_IRC_F E -1104.483120425002
  Sc      0.748651      0.173194     -1.908973
  C       0.145412     -0.219567      0.327756
  N      -0.573118     -1.144102      0.996133
  C      -0.574661     -0.891926      2.340933
  C       0.163030      0.224652      2.524696
  N       0.590649      0.615900      1.287917
  C       1.448874      1.772496      1.086994
  H       2.460500      1.556241      1.424436
  H       1.057376      2.622879      1.638594
  H       1.489140      2.044585      0.034473
  C      -1.236528     -2.299858      0.421954
  H      -1.325795     -2.185915     -0.654637
  H      -2.239047     -2.393408      0.833655
  H      -0.680172     -3.209248      0.643367
  H      -1.094995     -1.507722      3.055163
  H       0.404196      0.765189      3.424266
  C      -0.472654      0.499161     -3.592501
  H       0.198075      0.427952     -4.463918
  H      -0.774292      1.556078     -3.554224
  H      -1.363790     -0.089744     -3.816139
  H       1.700809      1.663646     -1.958163
21
Coordinates from ORCA-job reaction-5-dhsgs_optts_Compound_2_IRC_F E -1104.483192618561
  Sc      0.748962      0.174065     -1.908924
  C       0.145619     -0.218346      0.327381
  N      -0.572956     -1.143287      0.995161
  C      -0.574595     -0.891905      2.340086
  C       0.163018      0.224577      2.524567
  N       0.590737      0.616609      1.288073
  C       1.449062      1.773370      1.088236
  H       2.460450      1.556869      1.426193
  H       1.057228      2.623369      1.640178
  H       1.490098      2.045985      0.035903
  C      -1.236221     -2.298905      0.420486
  H      -1.325317     -2.184808     -0.656111
  H      -2.238802     -2.392567      0.832001
  H      -0.679869     -3.208301      0.641873
  H      -1.094888     -1.508244      3.053861
  H       0.404165      0.764563      3.424467
  C      -0.473759      0.496922     -3.592194
  H       0.195516      0.426330     -4.464418
  H      -0.775883      1.554038     -3.553063
  H      -1.365388     -0.091670     -3.815163
  H       1.705966      1.661865     -1.957053
