! EnGrad PBEh-3c
%output 
xyzfile=True 
end 
%scf 
maxiter 250 
end
%output
Print[P_Hirshfeld] = 1
end
% maxcore
4000
*xyz -1 1
C   -2.22776218  -0.05653594   0.67206805 
C   -1.86160466   0.99042765   1.52737521 
C   -3.58476784  -0.38602332   0.65595417 
C   -4.58377327   0.52344671   0.98359349 
C   -4.21030611   1.63601803   1.71995706 
C   -2.86360652   1.92471671   1.83865726 
H   -2.61123542  -1.62214892  -1.91288765 
H   -3.92522572  -1.40318799   0.51134569 
H   -2.62669877   2.95020965   2.11402951 
H   -5.63459092   0.30661823   0.82808738 
H   -4.97316589   2.32842651   2.05515693 
C   -0.44584917   1.42689308   1.82181630 
C    0.71888908   0.46499919   1.94685686 
H   -0.45787976   1.99530597   2.76164012 
H   -0.26060796   2.17490500   1.04366067 
C    1.75041919   0.64268504   0.85542206 
H    0.36703537  -0.56925859   1.94642371 
H    1.24584826   0.53386415   2.90878867 
C    1.58848036   0.06362017  -0.41180125 
C    2.62014806   0.25912901  -1.33170365 
C    3.66037982   1.15923774  -1.12484730 
C    2.92181688   1.35762278   1.13174103 
C    3.74119591   1.80073690   0.10019449 
H    2.67832340  -0.33897544  -2.23272133 
H    4.38406993   1.36044323  -1.90654060 
H    3.04455126   1.79417941   2.11863624 
H    4.44126711   2.61737751   0.22809479 
Pd   0.18115827  -1.27326854  -0.70422502 
Br  -1.51991768  -3.76476472  -0.68823796 
P    1.41330687  -3.00229031   0.00299716 
H    1.07262552  -3.60256539   1.23023708 
C    0.34653238  -1.40454899  -3.84839456 
O    1.44956248  -1.77043288  -4.18185355 
O   -0.51113014  -2.17169167  -3.27507154 
O   -0.21792387  -0.26094508  -4.28041350 
H    2.77879574  -2.81337659   0.31443320 
H    1.63540260  -4.16167101  -0.76443519 
H    0.47622811   0.29082290  -4.65401876 
*
