! EnGrad PBEh-3c
%output 
xyzfile=True 
end 
%scf 
maxiter 250 
end
%output
Print[P_Hirshfeld] = 1
end
% maxcore
4000
*xyz -1 1
C   -2.20817298  -0.07645629   0.72282441 
C   -1.85452517   1.00274955   1.45347250 
C   -3.60172549  -0.39624239   0.63193589 
C   -4.57269146   0.50468439   1.03844431 
C   -4.21443298   1.66403267   1.66095851 
C   -2.88215060   1.92905868   1.87143003 
H   -2.54730005  -1.65044270  -1.89645576 
H   -3.91237644  -1.40438548   0.46361346 
H   -2.61020575   2.93975199   2.14224202 
H   -5.63128331   0.29625263   0.82776884 
H   -4.96729243   2.33966763   2.04711724 
C   -0.45531527   1.47426247   1.83894260 
C    0.74456606   0.42054039   1.93977870 
H   -0.46947456   1.99198597   2.76178228 
H   -0.23825136   2.17738744   1.05545790 
C    1.76040218   0.62181869   0.87273259 
H    0.36053040  -0.57046733   1.94427067 
H    1.23679637   0.54899876   2.90802005 
C    1.61882575   0.05031491  -0.39260060 
C    2.61839503   0.23962632  -1.35412837 
C    3.63742718   1.17288974  -1.11603631 
C    2.87986380   1.41258543   1.12070741 
C    3.75723029   1.78246583   0.09585235 
H    2.66121479  -0.33692031  -2.24042133 
H    4.37725601   1.36030094  -1.90783225 
H    3.04341634   1.79206547   2.11955977 
H    4.45126229   2.60687145   0.24056992 
Pd   0.09991718  -1.29110448  -0.71340139 
Br  -1.53097466  -3.72668919  -0.68941573 
P    1.44969508  -3.01098753   0.00485030 
H    1.07097052  -3.59919877   1.22332608 
C    0.22236538  -1.52820420  -3.84846613 
O    1.52570770  -1.73965381  -4.18698284 
O   -0.49323823  -2.11572343  -3.25297950 
O   -0.20709391  -0.21082707  -4.27450765 
H    2.78178808  -2.80573040   0.31220934 
H    1.62211431  -4.15384212  -0.76967401 
H    0.47519048   0.28966686  -4.65407284 
*
