! EnGrad PBEh-3c
%output 
xyzfile=True 
end 
%scf 
maxiter 250 
end
%output
Print[P_Hirshfeld] = 1
end
% maxcore
4000
*xyz -1 1
C   -2.21070754  -0.09185749   0.73259599 
C   -1.85316848   1.01977064   1.44117321 
C   -3.59905661  -0.39649753   0.62937132 
C   -4.57500273   0.49075258   1.05036427 
C   -4.21309326   1.67852224   1.64890328 
C   -2.88394246   1.92555528   1.87560535 
H   -2.52209086  -1.66062260  -1.88489266 
H   -3.90938550  -1.40769038   0.44527315 
H   -2.60409463   2.93618900   2.15508707 
H   -5.62768192   0.29251213   0.83091279 
H   -4.96584989   2.34398272   2.04369793 
C   -0.45350166   1.47502555   1.83372353 
C    0.74617057   0.41881271   1.93956235 
H   -0.47433392   1.99632026   2.76614164 
H   -0.22860753   2.18139939   1.05546012 
C    1.76535005   0.61539258   0.87601205 
H    0.35554640  -0.57665213   1.94288469 
H    1.23313383   0.55404109   2.90768882 
C    1.62559881   0.03955383  -0.39068091 
C    2.61735276   0.23753994  -1.35251933 
C    3.63253923   1.17235936  -1.12260399 
C    2.86826164   1.43028790   1.11536441 
C    3.75920223   1.78047953   0.10148827 
H    2.65487273  -0.33945043  -2.24915663 
H    4.37300030   1.36001036  -1.90584443 
H    3.04219707   1.79292059   2.12043785 
H    4.45554895   2.60125794   0.24503901 
Pd   0.07665417  -1.29715393  -0.71338186 
Br  -1.53679758  -3.71034291  -0.69240207 
P    1.45630539  -3.00961129   0.00451950 
H    1.06952394  -3.59783022   1.22119704 
C    0.28164597  -1.50444366  -3.90498655 
O    1.51563670  -1.72900794  -4.17993982 
O   -0.54652681  -2.14769316  -3.20167443 
O   -0.21787630  -0.20915044  -4.26542152 
H    2.78653259  -2.80236118   0.31345228 
H    1.61776153  -4.15272913  -0.77195786 
H    0.48674524   0.29173007  -4.65937075 
*
