! EnGrad PBEh-3c
%output 
xyzfile=True 
end 
%scf 
maxiter 250 
end
%output
Print[P_Hirshfeld] = 1
end
% maxcore
4000
*xyz -1 1
C   -2.21312398  -0.10955699   0.74088020 
C   -1.85495173   1.03974517   1.43229899 
C   -3.59309958  -0.39779691   0.62955485 
C   -4.57813004   0.47740820   1.06142786 
C   -4.21262762   1.69066739   1.63711618 
C   -2.88086809   1.92287621   1.87552722 
H   -2.48810736  -1.67491117  -1.86969288 
H   -3.90595838  -1.41155078   0.42205620 
H   -2.59717061   2.93137947   2.17156050 
H   -5.62339275   0.28743253   0.83566529 
H   -4.96502704   2.35025028   2.03887571 
C   -0.44855137   1.46999318   1.82501481 
C    0.74302498   0.42196490   1.94056574 
H   -0.48056460   2.00215258   2.77234171 
H   -0.21523072   2.18852610   1.05473984 
C    1.77085289   0.60857189   0.87691146 
H    0.34912586  -0.58530937   1.94131651 
H    1.22911334   0.55957591   2.90798892 
C    1.62838792   0.02340660  -0.38868355 
C    2.61611707   0.23607818  -1.34940638 
C    3.62848540   1.17065060  -1.13026522 
C    2.85715607   1.44877352   1.11014769 
C    3.75875482   1.77973635   0.10706159 
H    2.64676813  -0.34229663  -2.26005544 
H    4.36745615   1.35974578  -1.90348173 
H    3.04000556   1.79522334   2.12135931 
H    4.46133028   2.59376689   0.25040233 
Pd   0.05299501  -1.30437135  -0.71106432 
Br  -1.54577961  -3.68857515  -0.69680342 
P    1.45952498  -3.00502250   0.00298002 
H    1.06820241  -3.59628945   1.21855363 
C    0.30798256  -1.50182982  -3.92500918 
O    1.49314253  -1.71723858  -4.17337267 
O   -0.56049285  -2.14910358  -3.18370675 
O   -0.22329901  -0.21459650  -4.25718132 
H    2.79472477  -2.79818028   0.31540468 
H    1.61293328  -4.15233555  -0.77525199 
H    0.49736814   0.29265868  -4.66431214 
*
