! EnGrad PBEh-3c
%output 
xyzfile=True 
end 
%scf 
maxiter 250 
end
%output
Print[P_Hirshfeld] = 1
end
% maxcore
4000
*xyz -1 1
C   -2.21186236  -0.13865808   0.75903345 
C   -1.86204430   1.06906650   1.41427741 
C   -3.58134576  -0.40875152   0.63495046 
C   -4.58003017   0.45997688   1.08528335 
C   -4.21406364   1.70277757   1.61376399 
C   -2.87022626   1.92473096   1.86935265 
H   -2.40224209  -1.71106505  -1.82974805 
H   -3.89799605  -1.41772869   0.36825226 
H   -2.58190161   2.91807819   2.21211820 
H   -5.61685297   0.27341143   0.84900398 
H   -4.96415798   2.36651422   2.02744580 
C   -0.43654211   1.46208903   1.80749476 
C    0.72950149   0.42780142   1.94138146 
H   -0.49415166   2.01352129   2.77709214 
H   -0.18243208   2.20528393   1.05086951 
C    1.77860405   0.59368421   0.87443949 
H    0.33539433  -0.60101355   1.93766044 
H    1.21885185   0.57245947   2.90920500 
C    1.62809368  -0.01575793  -0.38153605 
C    2.61312293   0.22807781  -1.34867809 
C    3.62066581   1.16753802  -1.13747037 
C    2.83554345   1.48415568   1.10164712 
C    3.75431041   1.77929873   0.11075296 
H    2.62788238  -0.34575224  -2.28120146 
H    4.35666591   1.35929504  -1.90064262 
H    3.03280039   1.80311070   2.12232526 
H    4.47614263   2.57528120   0.26317245 
Pd   0.00611536  -1.32111277  -0.70144263 
Br  -1.57041784  -3.63350535  -0.71045331 
P    1.46228417  -2.99119883  -0.00168912 
H    1.06479425  -3.59223702   1.21215276 
C    0.33042544  -1.47068520  -3.94618592 
O    1.46706963  -1.70195732  -4.16845022 
O   -0.58478218  -2.15487925  -3.15123891 
O   -0.21907416  -0.22718361  -4.24918374 
H    2.81414796  -2.78855815   0.32113424 
H    1.60242936  -4.15164073  -0.78202841 
H    0.51037488   0.28783084  -4.67057284 
*
