! EnGrad PBEh-3c
%output 
xyzfile=True 
end 
%scf 
maxiter 250 
end
%output
Print[P_Hirshfeld] = 1
end
% maxcore
4000
*xyz 0 1
Lu   0.12199713  -0.42311618   0.31482489 
C    0.57391514   0.39081004   2.70501465 
C    1.75429572  -0.26411741   2.29050127 
C    2.33876270   0.50398818   1.26290244 
C    1.50813831   1.61410595   1.01514987 
C    0.42912321   1.55101398   1.92445480 
H    1.69512798   2.40439255   0.30152197 
H   -0.33126287   2.30688656   2.05539980 
H   -0.07865810   0.08838280   3.50956191 
H    2.14835865  -1.17920428   2.71112095 
H    3.26504386   0.27933736   0.75587590 
C    0.58164061  -0.16928382  -2.20624398 
C   -0.55660191  -0.99881022  -2.11834754 
C    1.21937145  -2.14991340  -1.27026496 
C    1.68129735  -0.89088873  -1.70312093 
H    0.61235500   0.81264673  -2.65621985 
C   -0.16552696  -2.21627048  -1.53915963 
H   -1.54246268  -0.77016090  -2.49345879 
H    2.70453991  -0.54913841  -1.66814843 
H    1.81916643  -2.94294409  -0.84553566 
H   -0.80876612  -3.06561418  -1.36531193 
C   -2.00131926  -1.24753216   1.09352172 
H   -2.38142010  -0.85478739   2.03947835 
H   -2.03882456  -2.34229122   1.18102945 
H   -2.75114407  -1.01960528   0.32680661 
C   -1.92750773   2.25497745  -1.14556396 
H   -2.17565891   1.28406890  -0.25462282 
H   -0.91007176   2.63582717  -1.20996908 
H   -2.56996563   3.09582720  -0.89302098 
H   -2.21395279   1.86143797  -2.11819203 
*
