! EnGrad PBEh-3c
%output 
xyzfile=True 
end 
%scf 
maxiter 250 
end
%output
Print[P_Hirshfeld] = 1
end
% maxcore
4000
*xyz 0 1
Lu   0.08737804  -0.41679053   0.31685472 
C    0.56804824   0.41548108   2.70114099 
C    1.73602141  -0.25983759   2.28879460 
C    2.33937736   0.49285172   1.26014913 
C    1.52873076   1.61840277   1.01565711 
C    0.44159030   1.57569645   1.91388262 
H    1.72615431   2.40222720   0.29488692 
H   -0.30669136   2.33945987   2.03907592 
H   -0.09231438   0.12004083   3.49873149 
H    2.11902352  -1.17869453   2.71313723 
H    3.26584594   0.25959139   0.76364019 
C    0.59811988  -0.16497055  -2.22008892 
C   -0.54823034  -0.98575581  -2.13377445 
C    1.20786619  -2.14447330  -1.26725204 
C    1.69127911  -0.88984654  -1.69827361 
H    0.64057496   0.81591597  -2.66738447 
C   -0.17152225  -2.20646196  -1.54821034 
H   -1.52880143  -0.74918489  -2.51820535 
H    2.71289777  -0.55798307  -1.66121145 
H    1.80395788  -2.94059990  -0.83718177 
H   -0.82022548  -3.04625497  -1.37676421 
C   -1.97693797  -1.26536189   1.09156848 
H   -2.37954405  -0.88012176   2.05114215 
H   -2.02548320  -2.36295667   1.18784181 
H   -2.76159539  -1.04933513   0.33790525 
C   -1.97748750   2.12987123  -1.03088636 
H   -2.16477382   1.38795818  -0.33646667 
H   -0.91049493   2.61191969  -1.19675615 
H   -2.57375018   3.08045009  -0.86811755 
H   -2.23148568   1.84876719  -2.09500669 
*
