! EnGrad PBEh-3c
%output 
xyzfile=True 
end 
%scf 
maxiter 250 
end
%output
Print[P_Hirshfeld] = 1
end
% maxcore
4000
*xyz 0 1
Lu   0.06652180  -0.41846637   0.32088649 
C    0.56566441   0.43478969   2.69955213 
C    1.72410754  -0.25960181   2.28746231 
C    2.33378476   0.48588032   1.25900474 
C    1.54551417   1.62328825   1.01414538 
C    0.45279074   1.59036643   1.90941179 
H    1.74802483   2.39899574   0.29213991 
H   -0.29567180   2.36305761   2.02528354 
H   -0.10415548   0.13953576   3.49198990 
H    2.09920545  -1.17723945   2.71485370 
H    3.26718445   0.24403130   0.76655620 
C    0.61165763  -0.16537149  -2.22813849 
C   -0.54200185  -0.97685417  -2.14697029 
C    1.20530962  -2.14062605  -1.26088470 
C    1.68781707  -0.88981815  -1.69359244 
H    0.66066045   0.81956170  -2.67478690 
C   -0.17524778  -2.19608138  -1.55682019 
H   -1.52101075  -0.73301994  -2.53199054 
H    2.72150382  -0.56180750  -1.65455025 
H    1.79257804  -2.93729136  -0.83259131 
H   -0.83145942  -3.03615750  -1.38119312 
C   -1.97563314  -1.27425350   1.09537534 
H   -2.36963335  -0.90027841   2.04561294 
H   -2.00992245  -2.37136239   1.19140341 
H   -2.76178292  -1.06976183   0.35214615 
C   -1.95670906   2.21758152  -1.10683501 
H   -2.16570238   1.38713645  -0.32039539 
H   -0.96566466   2.54310152  -1.15300315 
H   -2.56838320   3.02791600  -0.84055076 
H   -2.24426898   1.83101339  -2.03958673 
*
