! EnGrad PBEh-3c
%output 
xyzfile=True 
end 
%scf 
maxiter 250 
end
%output
Print[P_Hirshfeld] = 1
end
% maxcore
4000
*xyz 0 1
Lu   0.06338445  -0.41868293   0.32157115 
C    0.56490127   0.43794442   2.69998708 
C    1.72078785  -0.25897921   2.28709140 
C    2.33459381   0.48372805   1.25784282 
C    1.54790785   1.62352121   1.01433055 
C    0.45451666   1.59538711   1.90809734 
H    1.75340464   2.39884819   0.29104976 
H   -0.29276600   2.36755172   2.02185945 
H   -0.10679214   0.14406153   3.49025420 
H    2.09495360  -1.17737112   2.71556002 
H    3.26612825   0.24050487   0.76759403 
C    0.61299423  -0.16345737  -2.23043084 
C   -0.54089413  -0.97475526  -2.15013723 
C    1.20263475  -2.13920949  -1.25972591 
C    1.69157784  -0.88933338  -1.69184128 
H    0.66540237   0.81965180  -2.67609104 
C   -0.17632360  -2.19538754  -1.55805361 
H   -1.51931339  -0.72921760  -2.53485752 
H    2.72110212  -0.56311488  -1.65283401 
H    1.79068574  -2.93724050  -0.83110553 
H   -0.83355394  -3.03306439  -1.38217955 
C   -1.97503868  -1.27768380   1.09531727 
H   -2.36773300  -0.90381114   2.04595928 
H   -2.00562878  -2.37297584   1.19211670 
H   -2.76233729  -1.07394367   0.35477878 
C   -1.96490860   2.20149982  -1.09226495 
H   -2.16078326   1.40248438  -0.33130850 
H   -0.95822503   2.53594103  -1.14579452 
H   -2.57554030   3.03048788  -0.83302777 
H   -2.25068786   1.82423154  -2.04259592 
*
