! EnGrad PBEh-3c
%output 
xyzfile=True 
end 
%scf 
maxiter 250 
end
%output
Print[P_Hirshfeld] = 1
end
% maxcore
4000
*xyz 0 1
Lu   0.06423407  -0.42029400   0.32229800 
C    0.55866955   0.45774743   2.69855356 
C    1.70450505  -0.25735762   2.28613393 
C    2.33127325   0.47392609   1.25598391 
C    1.55975448   1.62425897   1.00933167 
C    0.46570199   1.61694484   1.90321200 
H    1.78560069   2.39660908   0.28668564 
H   -0.27966736   2.39323625   1.99962119 
H   -0.12392741   0.16919474   3.48178899 
H    2.06978939  -1.17767163   2.72068409 
H    3.25946533   0.21674582   0.76999066 
C    0.62423378  -0.15673831  -2.23497669 
C   -0.53402740  -0.96392427  -2.16691384 
C    1.19270878  -2.13285682  -1.25044187 
C    1.69506881  -0.88721732  -1.68271562 
H    0.69288934   0.82254619  -2.68414723 
C   -0.18291133  -2.18543411  -1.56562680 
H   -1.51087448  -0.70582436  -2.54885077 
H    2.72292003  -0.56751870  -1.63888730 
H    1.77808403  -2.93546299  -0.82222737 
H   -0.84752875  -3.01584677  -1.38533302 
C   -1.97426818  -1.29392729   1.09592904 
H   -2.35394235  -0.91972915   2.05139543 
H   -1.97359735  -2.38646755   1.19503167 
H   -2.76942417  -1.09546937   0.36606265 
C   -1.98972128   2.19131335  -1.08388851 
H   -2.14413260   1.41375021  -0.32237352 
H   -0.92639933   2.48631859  -1.09817249 
H   -2.61497628   3.04252030  -0.79307476 
H   -2.28900737   1.78729184  -2.05561188 
*
