! EnGrad PBEh-3c
%output 
xyzfile=True 
end 
%scf 
maxiter 250 
end
%output
Print[P_Hirshfeld] = 1
end
% maxcore
4000
*xyz 0 1
Lu   0.07657733  -0.42163024   0.32087366 
C    0.55353566   0.46634399   2.69611227 
C    1.69750200  -0.25655012   2.28848777 
C    2.32743890   0.46975631   1.25757342 
C    1.56323366   1.62312640   1.00386466 
C    0.47003124   1.62387926   1.89993207 
H    1.80218646   2.39446338   0.28579696 
H   -0.27510301   2.40348342   1.98633364 
H   -0.13345552   0.18146621   3.47781039 
H    2.05681759  -1.17773984   2.72456117 
H    3.25300765   0.20212676   0.76878779 
C    0.62890802  -0.15306870  -2.23250128 
C   -0.53163690  -0.95829774  -2.17243291 
C    1.18884287  -2.13154311  -1.24559016 
C    1.69254087  -0.88662895  -1.67689591 
H    0.70643297   0.82420051  -2.68711499 
C   -0.18636064  -2.17844076  -1.56822684 
H   -1.50721568  -0.69315313  -2.55283133 
H    2.72277472  -0.56773411  -1.62776578 
H    1.77084388  -2.93393957  -0.81664091 
H   -0.85542069  -3.00613568  -1.38485291 
C   -1.97166847  -1.29728842   1.09590347 
H   -2.34430403  -0.92376798   2.05696218 
H   -1.95105950  -2.39505759   1.19514338 
H   -2.77600165  -1.10469900   0.36871426 
C   -1.99059948   2.19971728  -1.08773868 
H   -2.14114195   1.39716932  -0.30086641 
H   -0.92949471   2.46184294  -1.07845262 
H   -2.62480640   3.04244075  -0.78408124 
H   -2.30480522   1.77971606  -2.05254880 
*
