! EnGrad PBEh-3c
%output 
xyzfile=True 
end 
%scf 
maxiter 250 
end
%output
Print[P_Hirshfeld] = 1
end
% maxcore
4000
*xyz -1 1
Pt  -1.25091676  -1.01065301   0.63698638 
Cl  -0.30033410  -0.87078556   2.74554405 
Cl  -2.78174428  -2.56745182   1.18191057 
Cl  -1.96161103  -0.86985897  -1.56552841 
C    1.23926859   1.06916486  -0.62220909 
H    1.43230983   2.12498036  -0.44175850 
H    1.26600509   0.52986211   0.44718870 
H    2.04586394   0.62823176  -1.20097452 
H    0.31115873   0.96650152  -1.18115666 
*
