! EnGrad PBEh-3c
%output 
xyzfile=True 
end 
%scf 
maxiter 250 
end
%output
Print[P_Hirshfeld] = 1
end
% maxcore
4000
*xyz -1 1
Pt  -1.25311475  -1.01688418   0.63456859 
Cl  -0.30154927  -0.86354455   2.73719207 
Cl  -2.76915302  -2.54818800   1.18293198 
Cl  -1.94818031  -0.87831458  -1.56386941 
C    1.25336353   1.01876581  -0.50522747 
H    1.43641824   2.11846758  -0.43054906 
H    1.24519858   0.56873253   0.32098478 
H    2.03809951   0.63293057  -1.21236094 
H    0.29872132   0.96627740  -1.16221763 
*
