! EnGrad PBEh-3c
%output 
xyzfile=True 
end 
%scf 
maxiter 250 
end
%output
Print[P_Hirshfeld] = 1
end
% maxcore
4000
*xyz -1 1
Pt  -1.24917931  -1.01462539   0.63267355 
Cl  -0.30130645  -0.85981057   2.73605107 
Cl  -2.76855570  -2.54456195   1.18391193 
Cl  -1.94342189  -0.88208299  -1.56593348 
C    1.24767266   1.06222678  -0.59680011 
H    1.43663218   2.10675061  -0.42037939 
H    1.24285202   0.52651939   0.38420530 
H    2.02769549   0.63523373  -1.20657517 
H    0.30741102   0.96834613  -1.14543018 
*
