! EnGrad PBEh-3c
%output 
xyzfile=True 
end 
%scf 
maxiter 250 
end
%output
Print[P_Hirshfeld] = 1
end
% maxcore
4000
*xyz -1 1
Pt  -1.24673170  -1.01406807   0.63064994 
Cl  -0.30156397  -0.85593029   2.73234514 
Cl  -2.76581298  -2.53838068   1.18587608 
Cl  -1.93712966  -0.88656560  -1.56666804 
C    1.24442596   1.06846624  -0.61380749 
H    1.43938927   2.10257319  -0.41062475 
H    1.23476803   0.51592973   0.38141354 
H    2.02284072   0.63689285  -1.20803702 
H    0.30955677   0.96827915  -1.12863006 
*
