! EnGrad PBEh-3c
%output 
xyzfile=True 
end 
%scf 
maxiter 250 
end
%output
Print[P_Hirshfeld] = 1
end
% maxcore
4000
*xyz -1 1
Pt  -1.23899868  -1.00954022   0.62624516 
Cl  -0.30120204  -0.84955875   2.72559240 
Cl  -2.76563312  -2.53221033   1.19326783 
Cl  -1.92692150  -0.89430093  -1.57042975 
C    1.24464940   1.06017181  -0.59861167 
H    1.44751666   2.10904366  -0.39326378 
H    1.22139172   0.51076963   0.35762174 
H    2.02736096   0.63487852  -1.22204587 
H    0.29145381   0.96608486  -1.11390237 
*
