! EnGrad PBEh-3c
%output 
xyzfile=True 
end 
%scf 
maxiter 250 
end
%output
Print[P_Hirshfeld] = 1
end
% maxcore
4000
*xyz 0 1
C   -1.35517820   0.15059897  -0.74722016 
C   -2.19450510  -0.86892419  -1.17610768 
C   -1.94822008  -2.18302038  -0.78787194 
C   -0.92900994  -2.44059616   0.12728742 
C   -0.23977039  -0.13947389   0.02977172 
C   -0.10433036  -1.41795661   0.55669724 
H   -1.56219236   1.15377382  -1.08192918 
H   -2.99603120  -0.65427348  -1.88034423 
H   -2.51514412  -3.00704667  -1.23022041 
H    0.68185054  -1.64204167   1.25155069 
H   -0.72787295  -3.46058398   0.44206596 
Pd   1.35482468   0.96960074  -0.14690137 
O    3.40386135   1.42617848  -0.92642538 
O    2.63231293  -0.57738181  -0.50833996 
O    0.34415610   2.75240709   0.28744439 
C   -0.22419540   2.80837049   1.34593779 
O   -0.03345135   1.89681260   2.27344401 
H   -0.81192673   1.70178481   2.79304848 
C    3.54898276   0.19186563  -0.92112065 
H    4.48753879  -0.27396609  -1.26383701 
H   -0.87364758   3.63746340   1.58492449 
*
