! EnGrad PBEh-3c
%output 
xyzfile=True 
end 
%scf 
maxiter 250 
end
%output
Print[P_Hirshfeld] = 1
end
% maxcore
4000
*xyz 0 1
C   -1.36548798   0.15573803  -0.72269992 
C   -2.17394770  -0.87375189  -1.18785553 
C   -1.90662190  -2.18387733  -0.81786180 
C   -0.91176093  -2.44299933   0.11781026 
C   -0.25677473  -0.12937814   0.06771631 
C   -0.11360829  -1.41426914   0.58297211 
H   -1.58602921   1.16078782  -1.04741386 
H   -2.96561001  -0.65701260  -1.89694445 
H   -2.44598281  -3.00654341  -1.28327481 
H    0.66173848  -1.63789693   1.29206389 
H   -0.70426195  -3.45871851   0.42981501 
Pd   1.33562463   0.97506250  -0.13797579 
O    3.37074304   1.40349715  -0.95851671 
O    2.61299399  -0.59234598  -0.48224113 
O    0.34439116   2.75984835   0.28603851 
C   -0.22185869   2.81198421   1.35014485 
O   -0.03021495   1.91462437   2.28067005 
H   -0.81659870   1.68871825   2.77631184 
C    3.51827188   0.16972019  -0.93158580 
H    4.44725351  -0.29981282  -1.28749347 
H   -0.85613593   3.66741834   1.58815271 
*
