! EnGrad PBEh-3c
%output 
xyzfile=True 
end 
%scf 
maxiter 250 
end
%output
Print[P_Hirshfeld] = 1
end
% maxcore
4000
*xyz 0 1
C   -1.34806780   0.14621376  -0.76225450 
C   -2.20971154  -0.87093153  -1.16857536 
C   -1.97695074  -2.18449247  -0.77005076 
C   -0.94427281  -2.44096610   0.13064234 
C   -0.22638657  -0.14304538   0.00614565 
C   -0.09970558  -1.41836305   0.53857411 
H   -1.54670250   1.15212754  -1.10508892 
H   -3.01554217  -0.65202647  -1.86969514 
H   -2.55696586  -3.00354766  -1.19413723 
H    0.69841823  -1.64538178   1.22787165 
H   -0.74249055  -3.46264191   0.45018219 
Pd   1.36865914   0.96418042  -0.15228043 
O    3.42424973   1.44070679  -0.90568958 
O    2.64290717  -0.56683619  -0.52534700 
O    0.34366260   2.74758116   0.28333590 
C   -0.22088282   2.80260600   1.34788559 
O   -0.03482969   1.88884376   2.26589205 
H   -0.81138474   1.70818668   2.80562483 
C    3.57026931   0.20575715  -0.91369439 
H    4.51316134  -0.25709477  -1.24865067 
H   -0.88801457   3.62044930   1.58346636 
*
