! EnGrad PBEh-3c
%output 
xyzfile=True 
end 
%scf 
maxiter 250 
end
%output
Print[P_Hirshfeld] = 1
end
% maxcore
4000
*xyz 0 1
C   -1.35081461   0.12720196  -0.81241103 
C   -2.25186363  -0.88463572  -1.15113956 
C   -2.04441937  -2.17396490  -0.72048552 
C   -0.99337692  -2.44881157   0.13079418 
C   -0.20023247  -0.16105590  -0.06055522 
C   -0.09349774  -1.45064842   0.49048383 
H   -1.50788536   1.13995666  -1.19086192 
H   -3.05451738  -0.64415030  -1.81344315 
H   -2.67864391  -2.96810334  -1.06237345 
H    0.74767096  -1.67332276   1.15083738 
H   -0.78809009  -3.44503446   0.46030233 
Pd   1.39374089   0.96815020  -0.18040665 
O    3.49182032   1.47799193  -0.83740901 
O    2.69419818  -0.53883066  -0.58273572 
O    0.33875980   2.69693798   0.27867600 
C   -0.22404190   2.75582880   1.35583857 
O   -0.01127385   1.87369629   2.26940197 
H   -0.79258995   1.71327103   2.80686731 
C    3.63982185   0.24914037  -0.88122080 
H    4.58877740  -0.19787698  -1.19532442 
H   -0.94596135   3.61648088   1.56454960 
*
