! EnGrad PBEh-3c
%output 
xyzfile=True 
end 
%scf 
maxiter 250 
end
%output
Print[P_Hirshfeld] = 1
end
% maxcore
4000
*xyz 0 1
C   -1.35799213   0.15200162  -0.74052766 
C   -2.18889421  -0.87024185  -1.17931411 
C   -1.93686637  -2.18325428  -0.79605730 
C   -0.92430203  -2.44125208   0.12470075 
C   -0.24441151  -0.13671838   0.04012823 
C   -0.10686266  -1.41695016   0.56386865 
H   -1.56869834   1.15568821  -1.07250864 
H   -2.98772811  -0.65502109  -1.88487506 
H   -2.49626738  -3.00690931  -1.24470096 
H    0.67636120  -1.64091041   1.26260827 
H   -0.72142862  -3.46007483   0.43872221 
Pd   1.34958426   0.97109146  -0.14446525 
O    3.39482212   1.41998789  -0.93518431 
O    2.62704006  -0.58146609  -0.50121661 
O    0.34422026   2.75443809   0.28706067 
C   -0.22355763   2.80935681   1.34708606 
O   -0.03256801   1.90167410   2.27541627 
H   -0.81320189   1.69821845   2.78848042 
C    3.54060060   0.18582130  -0.92397698 
H    4.47654341  -0.28102064  -1.27029375 
H   -0.86886799   3.64563924   1.58580559 
*
