! EnGrad PBEh-3c
%output 
xyzfile=True 
end 
%scf 
maxiter 250 
end
%output
Print[P_Hirshfeld] = 1
end
% maxcore
4000
*xyz 0 1
C   -1.34816143   0.10159214  -0.88774137 
C   -2.29488762  -0.85934892  -1.13631092 
C   -2.12481702  -2.14565859  -0.64114065 
C   -1.00779598  -2.46082554   0.12890116 
C   -0.14101451  -0.14330581  -0.12477335 
C   -0.07380294  -1.50058938   0.41331234 
H   -1.47528084   1.08764777  -1.34913641 
H   -3.14936338  -0.62085398  -1.73833856 
H   -2.85515780  -2.89763652  -0.85255380 
H    0.79687530  -1.76776283   1.01113050 
H   -0.86798232  -3.46199444   0.49261763 
Pd   1.41756486   0.95945840  -0.24442761 
O    3.57464277   1.53593957  -0.70558897 
O    2.77395193  -0.49252115  -0.66750634 
O    0.27968789   2.66439414   0.18671894 
C   -0.22193234   2.74566825   1.26501464 
O   -0.05662399   1.85724059   2.40419023 
H   -0.74501582   1.67482189   2.88942835 
C    3.74190335   0.30085090  -0.84419418 
H    4.71983155  -0.10800281  -1.10757765 
H   -0.94415145   3.53247631   1.50828787 
*
