! EnGrad PBEh-3c
%output 
xyzfile=True 
end 
%scf 
maxiter 250 
end
%output
Print[P_Hirshfeld] = 1
end
% maxcore
4000
*xyz 0 1
C   -1.34483618   0.14001089  -0.77734705 
C   -2.22401985  -0.87864640  -1.16192669 
C   -2.00269863  -2.18607212  -0.75547236 
C   -0.96259804  -2.44369539   0.12828484 
C   -0.21559528  -0.14565624  -0.01403530 
C   -0.09725121  -1.42338669   0.52137120 
H   -1.53374184   1.15226719  -1.13049521 
H   -3.03119484  -0.64845197  -1.85621219 
H   -2.59028126  -2.99052964  -1.15449993 
H    0.71713982  -1.65290116   1.20672901 
H   -0.75590250  -3.46231741   0.45722819 
Pd   1.38290061   0.96412097  -0.15900169 
O    3.44161826   1.45136644  -0.88458454 
O    2.65601362  -0.55634189  -0.54340947 
O    0.34472234   2.73815169   0.26730319 
C   -0.22088925   2.79999502   1.34874493 
O   -0.03259234   1.87736296   2.26999557 
H   -0.81029526   1.71062960   2.81816657 
C    3.59003247   0.21800822  -0.90381020 
H    4.53586216  -0.23995804  -1.23334410 
H   -0.90375975   3.61045467   1.58071130 
*
