! EnGrad PBEh-3c
%output 
xyzfile=True 
end 
%scf 
maxiter 250 
end
%output
Print[P_Hirshfeld] = 1
end
% maxcore
4000
*xyz 0 1
C   -1.33644116   0.10778858  -0.88333183 
C   -2.29397721  -0.86343003  -1.13419770 
C   -2.12297040  -2.14450012  -0.64141154 
C   -1.01091487  -2.45923646   0.12727011 
C   -0.15389107  -0.15788801  -0.12657278 
C   -0.06828512  -1.48725239   0.41164197 
H   -1.47620057   1.08631449  -1.34782887 
H   -3.15013572  -0.62060216  -1.73979040 
H   -2.85550728  -2.89956380  -0.85429578 
H    0.79559852  -1.76782186   1.01155898 
H   -0.86735104  -3.46316686   0.49291236 
Pd   1.42100999   0.96178799  -0.24441518 
O    3.57359360   1.53212898  -0.70679032 
O    2.77311759  -0.49469414  -0.66718241 
O    0.28340432   2.66104952   0.19002326 
C   -0.22842058   2.73393780   1.28822509 
O   -0.05995070   1.86741649   2.38424854 
H   -0.74035017   1.67937755   2.88440921 
C    3.73857823   0.30576947  -0.84272149 
H    4.71985865  -0.10919354  -1.10856724 
H   -0.94293191   3.53415001   1.50746865 
*
