! EnGrad PBEh-3c
%output 
xyzfile=True 
end 
%scf 
maxiter 250 
end
%output
Print[P_Hirshfeld] = 1
end
% maxcore
4000
*xyz 0 1
C   -1.31439721   0.12228491  -0.84960576 
C   -2.27693062  -0.86916218  -1.13332579 
C   -2.10653493  -2.15613240  -0.66214375 
C   -1.00763685  -2.44475139   0.13082231 
C   -0.16942482  -0.16940838  -0.11548357 
C   -0.06690678  -1.44456044   0.42619053 
H   -1.48619644   1.09009390  -1.31019019 
H   -3.13755053  -0.62843568  -1.76336488 
H   -2.82424591  -2.92233889  -0.90280597 
H    0.77617060  -1.74596971   1.04169045 
H   -0.84920209  -3.46943450   0.48167925 
Pd   1.38905143   0.93744296  -0.23386299 
O    3.56666047   1.52254315  -0.73870570 
O    2.75270302  -0.50384857  -0.64164064 
O    0.29416194   2.66243257   0.25638047 
C   -0.24695700   2.71367436   1.34348392 
O    0.01315967   1.91804670   2.27811516 
H   -0.79634369   1.67467998   2.87062126 
C    3.71353380   0.30175435  -0.85580956 
H    4.69941433  -0.13108082  -1.12871109 
H   -0.93086064   3.55059906   1.51016499 
*
