! EnGrad PBEh-3c
%output 
xyzfile=True 
end 
%scf 
maxiter 250 
end
%output
Print[P_Hirshfeld] = 1
end
% maxcore
4000
*xyz 0 1
C   -1.31558359   0.12470773  -0.84122300 
C   -2.26711223  -0.86497217  -1.13311366 
C   -2.09822031  -2.16025291  -0.67044203 
C   -1.00150950  -2.43727429   0.13450262 
C   -0.18039916  -0.17730270  -0.11075041 
C   -0.06923422  -1.43997056   0.43486703 
H   -1.48936955   1.09280087  -1.29277403 
H   -3.12805543  -0.63197129  -1.77132605 
H   -2.81026572  -2.93339988  -0.92523898 
H    0.76797857  -1.73481233   1.05434683 
H   -0.84114394  -3.46725123   0.47645621 
Pd   1.38349726   0.93849479  -0.22794200 
O    3.56090194   1.52053041  -0.75296378 
O    2.74524993  -0.50970354  -0.63218760 
O    0.29979045   2.66091435   0.28044785 
C   -0.25743996   2.73108270   1.33802369 
O    0.01113413   1.90370510   2.28581332 
H   -0.78381626   1.68422130   2.84217638 
C    3.70333204   0.29489913  -0.86005213 
H    4.68673310  -0.14015724  -1.13762101 
H   -0.92846420   3.55733229   1.51417070 
*
