! EnGrad PBEh-3c
%output 
xyzfile=True 
end 
%scf 
maxiter 250 
end
%output
Print[P_Hirshfeld] = 1
end
% maxcore
4000
*xyz 0 1
C   -1.33038417   0.12663184  -0.83774160 
C   -2.25223925  -0.85514071  -1.13355485 
C   -2.08013938  -2.16148528  -0.68210726 
C   -0.99022784  -2.42853110   0.14135346 
C   -0.20919956  -0.19995367  -0.10476655 
C   -0.07358709  -1.45152856   0.45309718 
H   -1.49215884   1.10026439  -1.26167882 
H   -3.10353219  -0.63713840  -1.77954175 
H   -2.78451241  -2.95306444  -0.96539386 
H    0.75652310  -1.71325069   1.07517662 
H   -0.82713509  -3.45305813   0.46834149 
Pd   1.39314162   0.96171706  -0.21513633 
O    3.54476586   1.51399924  -0.77758160 
O    2.73471969  -0.52338499  -0.62019653 
O    0.31962973   2.65474153   0.29607586 
C   -0.27525855   2.75854394   1.34000992 
O    0.00955426   1.87133245   2.29385257 
H   -0.76810574   1.70433996   2.80743258 
C    3.68538444   0.28086081  -0.86273235 
H    4.65796327  -0.15496030  -1.15305643 
H   -0.93595255   3.57771576   1.52741607 
*
