! EnGrad PBEh-3c
%output 
xyzfile=True 
end 
%scf 
maxiter 250 
end
%output
Print[P_Hirshfeld] = 1
end
% maxcore
4000
*xyz 0 1
C   -1.34576407   0.12512434  -0.83037166 
C   -2.25897427  -0.87181813  -1.14437934 
C   -2.06339572  -2.16373634  -0.69794951 
C   -0.99501756  -2.44506478   0.13635572 
C   -0.20026819  -0.17794119  -0.08523453 
C   -0.08464283  -1.45904830   0.47063679 
H   -1.49787544   1.12022347  -1.23101504 
H   -3.07681283  -0.64035482  -1.79053891 
H   -2.73691037  -2.95805435  -1.00696520 
H    0.75553350  -1.69493952   1.10931683 
H   -0.81003053  -3.44332272   0.46380336 
Pd   1.39589662   0.96804475  -0.19877210 
O    3.52072117   1.49677494  -0.80402211 
O    2.71833614  -0.52957345  -0.60512765 
O    0.32720840   2.67365267   0.28580573 
C   -0.24162518   2.74686459   1.34557632 
O    0.00120363   1.87368029   2.28074764 
H   -0.78195382   1.70781436   2.81054221 
C    3.66713688   0.26640340  -0.86972330 
H    4.62553940  -0.17281511  -1.17107626 
H   -0.94868865   3.60289555   1.54622944 
*
