! EnGrad PBEh-3c
%output 
xyzfile=True 
end 
%scf 
maxiter 250 
end
%output
Print[P_Hirshfeld] = 1
end
% maxcore
4000
*xyz 0 1
C   -1.56043405   0.19949717  -0.43795783 
C   -2.04196616  -0.84656874  -1.22540563 
C   -1.65546074  -2.15763303  -0.96890696 
C   -0.76942891  -2.39854328   0.06871362 
C   -0.69449161   0.02278719   0.70636267 
C   -0.31145838  -1.35184102   0.86342119 
H   -1.87017079   1.20662372  -0.68241698 
H   -2.68461278  -0.65319569  -2.06857502 
H   -2.01940925  -2.98102329  -1.58276011 
H    0.37954740  -1.56791497   1.66391788 
H   -0.42460752  -3.40118862   0.24857700 
Pd   1.25932354   0.96694217  -0.00619722 
O    3.15728059   1.30779551  -1.23445998 
O    2.53184991  -0.54591571  -0.24641608 
O    0.34773716   2.70255018   0.17574795 
C   -0.01837760   2.90096978   1.36273636 
O    0.15659136   2.12245544   2.34217609 
H   -0.68657441   0.96436198   1.86934555 
C    3.33355560   0.10370527  -0.99087965 
H    4.20877134  -0.43746627  -1.36527421 
H   -0.64337596   3.81951068   1.48783124 
*
