! EnGrad PBEh-3c
%output 
xyzfile=True 
end 
%scf 
maxiter 250 
end
%output
Print[P_Hirshfeld] = 1
end
% maxcore
4000
*xyz 0 1
C   -1.54376348   0.20840386  -0.42733124 
C   -2.04421970  -0.84093615  -1.20745221 
C   -1.66412621  -2.15121138  -0.95477881 
C   -0.77730540  -2.39004262   0.07879089 
C   -0.68099398   0.03560569   0.71975412 
C   -0.30691537  -1.34080225   0.87129118 
H   -1.85857508   1.21714838  -0.67186700 
H   -2.68259606  -0.64417586  -2.05367592 
H   -2.01095928  -2.96768464  -1.57471801 
H    0.38599579  -1.56161488   1.67195720 
H   -0.42805231  -3.39233346   0.26021620 
Pd   1.24251241   0.93791331  -0.02774467 
O    3.13721541   1.31652170  -1.19276879 
O    2.51345495  -0.57234343  -0.27037784 
O    0.33148252   2.66672396   0.20902695 
C   -0.05801383   2.88852788   1.39083114 
O    0.03159672   2.10075453   2.38304545 
H   -0.48021828   0.93214312   1.62169665 
C    3.31856310   0.10696496  -0.97982218 
H    4.19737558  -0.42538725  -1.35099672 
H   -0.62840133   3.84545807   1.47889419 
*
