! EnGrad PBEh-3c
%output 
xyzfile=True 
end 
%scf 
maxiter 250 
end
%output
Print[P_Hirshfeld] = 1
end
% maxcore
4000
*xyz 0 1
C   -1.54244172   0.21790694  -0.41119566 
C   -2.02919384  -0.83218130  -1.20294125 
C   -1.64790798  -2.14064175  -0.95575232 
C   -0.76701877  -2.37832730   0.08540817 
C   -0.68752212   0.01742862   0.70793535 
C   -0.30772278  -1.33009745   0.89125472 
H   -1.87052011   1.21985610  -0.66393500 
H   -2.67383885  -0.63387610  -2.05370992 
H   -1.98314447  -2.95272752  -1.58421923 
H    0.38463153  -1.56733833   1.68749369 
H   -0.41607745  -3.38923303   0.26291330 
Pd   1.25255816   0.94747948  -0.04500901 
O    3.10065636   1.30138892  -1.18262096 
O    2.50347545  -0.58720950  -0.27622124 
O    0.32592517   2.65865185   0.21988871 
C   -0.09047556   2.88437776   1.41625148 
O   -0.02855567   2.10977038   2.36430415 
H   -0.41952242   0.90825085   1.54978293 
C    3.31482296   0.09437786  -0.96933362 
H    4.18621946  -0.43336558  -1.36107195 
H   -0.60878946   3.85367521   1.49153717 
*
