! EnGrad PBEh-3c
%output 
xyzfile=True 
end 
%scf 
maxiter 250 
end
%output
Print[P_Hirshfeld] = 1
end
% maxcore
4000
*xyz 0 1
C   -1.56498423   0.22361348  -0.40044425 
C   -2.00379081  -0.80939658  -1.21049182 
C   -1.56929961  -2.10949065  -0.97035295 
C   -0.73595578  -2.37852980   0.11002498 
C   -0.63278064  -0.00745627   0.64745144 
C   -0.30469729  -1.34981161   0.92063402 
H   -1.89996185   1.22506907  -0.62512321 
H   -2.63969089  -0.60394100  -2.05871086 
H   -1.87705954  -2.91678850  -1.64032907 
H    0.36938680  -1.57149512   1.73271108 
H   -0.37378003  -3.38005949   0.26618137 
Pd   1.25292866   0.96673725  -0.04096550 
O    3.01693231   1.24944831  -1.19146645 
O    2.46825927  -0.61997567  -0.26310536 
O    0.32453810   2.68906281   0.21421450 
C   -0.12542298   2.91065298   1.39498240 
O   -0.14418988   2.14075859   2.34521468 
H   -0.43402594   0.82110024   1.56147455 
C    3.27798067   0.04634657  -0.96972041 
H    4.15690714  -0.45996267  -1.40590634 
H   -0.56179818   3.90034147   1.54281259 
*
