! EnGrad PBEh-3c
%output 
xyzfile=True 
end 
%scf 
maxiter 250 
end
%output
Print[P_Hirshfeld] = 1
end
% maxcore
4000
*xyz 0 1
C   -1.56168386   0.22400646  -0.39826492 
C   -2.01021009  -0.81270092  -1.20539660 
C   -1.59445863  -2.11746719  -0.96330291 
C   -0.74358199  -2.37388827   0.10614628 
C   -0.65502553  -0.00131477   0.66642866 
C   -0.30927453  -1.34069484   0.91684957 
H   -1.89010458   1.22294693  -0.63523256 
H   -2.64915296  -0.61250122  -2.05681656 
H   -1.91348878  -2.93074877  -1.62313133 
H    0.37232277  -1.56926390   1.71865139 
H   -0.38633037  -3.38142483   0.26457164 
Pd   1.25442112   0.96187317  -0.04333701 
O    3.03979286   1.26671522  -1.18678514 
O    2.47690901  -0.60743289  -0.26946701 
O    0.32460303   2.67229094   0.22330154 
C   -0.11910193   2.90311502   1.40131358 
O   -0.10938359   2.13269330   2.34961171 
H   -0.41430899   0.83870432   1.52985726 
C    3.29126960   0.06345811  -0.96583024 
H    4.16688619  -0.45118470  -1.39112325 
H   -0.57181368   3.87945955   1.52458501 
*
