! EnGrad PBEh-3c
%output 
xyzfile=True 
end 
%scf 
maxiter 250 
end
%output
Print[P_Hirshfeld] = 1
end
% maxcore
4000
*xyz 0 1
C   -1.60856001   0.18591940  -0.48216145 
C   -1.98660887  -0.86641875  -1.29978462 
C   -1.57488317  -2.14275890  -1.02898225 
C   -0.71358387  -2.41445133   0.01677954 
C   -0.79367116  -0.06977449   0.67001864 
C   -0.31425985  -1.39446018   0.87293626 
H   -1.97587084   1.17271239  -0.72709091 
H   -2.66609969  -0.66340748  -2.12001039 
H   -1.95688509  -2.96239751  -1.62631824 
H    0.36836209  -1.62957997   1.68476368 
H   -0.38120228  -3.41642923   0.21180821 
Pd   1.38883386   1.11190687  -0.01451311 
O    3.12566952   1.21636403  -1.36068813 
O    2.60899692  -0.50946705  -0.16019796 
O    0.39332467   2.85219554  -0.00879325 
C    0.05583557   2.88754203   1.44683863 
O    0.40222041   2.21917692   2.11518051 
H   -1.29067679   1.13382018   2.69837472 
C    3.38294364   0.04247540  -1.01622958 
H    4.21370379  -0.52079422  -1.45061938 
H   -0.67751535   3.76686155   1.57574207 
*
