! EnGrad PBEh-3c
%output 
xyzfile=True 
end 
%scf 
maxiter 250 
end
%output
Print[P_Hirshfeld] = 1
end
% maxcore
4000
*xyz 0 1
C   -1.60513485   0.18736126  -0.47414673 
C   -1.98716799  -0.86268135  -1.30031111 
C   -1.57501874  -2.14734500  -1.02960856 
C   -0.71259051  -2.41124035   0.01770320 
C   -0.79737472  -0.07380931   0.66758432 
C   -0.31568070  -1.38863727   0.87516023 
H   -1.97605605   1.17289245  -0.72619378 
H   -2.66529094  -0.66361648  -2.12012918 
H   -1.95614432  -2.96211484  -1.62663643 
H    0.36713694  -1.62938366   1.68483535 
H   -0.38047451  -3.41757704   0.21169641 
Pd   1.38623249   1.11413712  -0.01767971 
O    3.12638879   1.21556960  -1.35982583 
O    2.61184646  -0.50933370  -0.16164272 
O    0.38755202   2.84747280   0.02936634 
C    0.03591681   2.94256557   1.35540237 
O    0.42958027   2.17153454   2.16998741 
H   -1.28995031   1.12726675   2.69026538 
C    3.37602735   0.04374376  -1.01455116 
H    4.21426014  -0.52101281  -1.45016330 
H   -0.67401871   3.76299287   1.57586914 
*
