! EnGrad PBEh-3c
%output 
xyzfile=True 
end 
%scf 
maxiter 250 
end
%output
Print[P_Hirshfeld] = 1
end
% maxcore
4000
*xyz 0 1
C   -1.60727280   0.18449456  -0.46217367 
C   -1.99399118  -0.86433450  -1.29733567 
C   -1.58009809  -2.15604960  -1.03024671 
C   -0.71970940  -2.41283547   0.02195004 
C   -0.78536902  -0.04989748   0.68141467 
C   -0.32044653  -1.37960139   0.87344676 
H   -1.96348818   1.17868790  -0.71564830 
H   -2.66671301  -0.66225708  -2.12105436 
H   -1.96136569  -2.96654177  -1.62555424 
H    0.36429550  -1.61959990   1.68447100 
H   -0.38036929  -3.42218166   0.21252029 
Pd   1.35936486   1.10548364   0.00936759 
O    3.13079041   1.22032134  -1.36285123 
O    2.59502322  -0.50257973  -0.17263856 
O    0.38928711   2.83416254   0.04281789 
C    0.03893522   2.94042914   1.32574678 
O    0.42729847   2.16363397   2.19207058 
H   -1.25536684   1.10045193   2.62356717 
C    3.38117155   0.05848158  -0.99958850 
H    4.21641194  -0.51736444  -1.45148416 
H   -0.66859584   3.76458240   1.56633031 
*
