! EnGrad PBEh-3c
%output 
xyzfile=True 
end 
%scf 
maxiter 250 
end
%output
Print[P_Hirshfeld] = 1
end
% maxcore
4000
*xyz 0 1
C   -1.60354199   0.18558660  -0.44724626 
C   -1.99893021  -0.86085799  -1.29082691 
C   -1.58719107  -2.16244431  -1.02843455 
C   -0.72365990  -2.40915935   0.02878479 
C   -0.77861103  -0.04182253   0.68410335 
C   -0.32412609  -1.36689440   0.87449704 
H   -1.95246748   1.18145727  -0.70902617 
H   -2.66922552  -0.66184543  -2.12082364 
H   -1.96881807  -2.97250252  -1.62445617 
H    0.36170356  -1.61223285   1.68116005 
H   -0.38216940  -3.42577671   0.21411977 
Pd   1.34196609   1.09545359   0.02005954 
O    3.13650110   1.22840610  -1.35884522 
O    2.58573187  -0.49931175  -0.17968594 
O    0.38240722   2.81994537   0.08855985 
C    0.04255802   2.94703753   1.27693964 
O    0.42352398   2.15695734   2.21064917 
H   -1.21987717   1.07506911   2.55758829 
C    3.37728916   0.06721013  -0.99396757 
H    4.21818774  -0.51077069  -1.44656256 
H   -0.66201764   3.76232465   1.55702698 
*
