! EnGrad PBEh-3c
%output 
xyzfile=True 
end 
%scf 
maxiter 250 
end
%output
Print[P_Hirshfeld] = 1
end
% maxcore
4000
*xyz 0 1
C   -1.59092571   0.19241378  -0.42810146 
C   -2.01530279  -0.85154646  -1.25919511 
C   -1.61725110  -2.16350203  -1.00711118 
C   -0.73981727  -2.39917384   0.05164610 
C   -0.74713034  -0.02237778   0.68390507 
C   -0.32519426  -1.34798160   0.87343380 
H   -1.91295838   1.18573998  -0.69573318 
H   -2.68076630  -0.66111127  -2.10902974 
H   -2.00291221  -2.99344509  -1.61416326 
H    0.36003492  -1.58968207   1.66401243 
H   -0.39868565  -3.42523249   0.22448711 
Pd   1.30661588   1.04216587   0.02744876 
O    3.15784905   1.26677760  -1.32194925 
O    2.55938901  -0.50028959  -0.19828043 
O    0.38057996   2.76759137   0.11791697 
C    0.02364857   2.93849155   1.33572538 
O    0.36085665   2.17320415   2.21610717 
H   -1.06350887   1.01136473   2.32005087 
C    3.36203987   0.08587990  -0.99833535 
H    4.22153877  -0.47788672  -1.41312541 
H   -0.64153800   3.75733579   1.51888135 
*
