! EnGrad PBEh-3c
%output 
xyzfile=True 
end 
%scf 
maxiter 250 
end
%output
Print[P_Hirshfeld] = 1
end
% maxcore
4000
*xyz 0 1
C   -1.57830766   0.19553490  -0.43794240 
C   -2.02935250  -0.84942586  -1.24346491 
C   -1.63682806  -2.15998350  -0.98726880 
C   -0.75439321  -2.40036636   0.05901977 
C   -0.72112812  -0.00163222   0.69219803 
C   -0.31776485  -1.35474314   0.86685525 
H   -1.89166691   1.19437474  -0.69105505 
H   -2.68315280  -0.65856967  -2.08846793 
H   -2.01478203  -2.98954816  -1.59788252 
H    0.36973573  -1.57917615   1.66196230 
H   -0.41311453  -3.41211670   0.23576982 
Pd   1.28651542   1.00688469   0.01012248 
O    3.16194331   1.28785573  -1.28022743 
O    2.54956128  -0.52074893  -0.21935096 
O    0.36473398   2.73978967   0.14235671 
C    0.01084299   2.91911932   1.34391412 
O    0.27587368   2.15029595   2.27836606 
H   -0.90034980   0.98898644   2.12215747 
C    3.34811741   0.09457230  -0.99875042 
H    4.21684307  -0.45701659  -1.38802784 
H   -0.64811100   3.78869654   1.50447076 
*
