! EnGrad PBEh-3c
%output 
xyzfile=True 
end 
%scf 
maxiter 250 
end
%output
Print[P_Hirshfeld] = 1
end
% maxcore
4000
*xyz 1 1
Ir   0.46781832  -0.65097005   1.03476644 
C   -0.06134948  -2.63571349   1.80614368 
C    1.00522001  -2.08657563   2.59047490 
C    1.74933187  -2.35769328   0.42627385 
C    0.43915177  -2.84872959   0.48791555 
C    2.10197538  -1.87441616   1.74134187 
N   -0.93849637   0.03085429  -0.41478479 
C   -2.37888452   0.12673423   0.01717211 
C   -2.82973895   1.57167142   0.17801302 
H   -3.85745274   1.57034267   0.54228154 
H   -2.82478284   2.11179852  -0.77181427 
H   -2.22556631   2.10156867   0.91124927 
C   -3.31581652  -0.63551679  -0.91490281 
H   -2.42185937  -0.35361139   0.99824808 
H   -4.30252038  -0.67271820  -0.45444092 
H   -3.45382065  -0.14447573  -1.88086142 
H   -2.99272278  -1.66272720  -1.08383325 
C   -0.63398702   0.30021027  -1.63577691 
C    0.68101627   0.23053319  -2.23693030 
H   -1.46877916   0.54651890  -2.30410368 
C    1.95791114   0.38002079  -1.74348972 
C    2.94100750   0.08406002  -2.68428948 
S    0.74206154  -0.02541752  -3.95987237 
C    2.43814881  -0.07893170  -3.93788136 
H    2.17901228   0.79845077  -0.78594211 
H    3.98887611   0.12144148  -2.44653777 
H    3.01624208  -0.20892780  -4.83888598 
H   -0.96532949  -3.07113300   2.20852775 
H    0.95360167  -1.88300542   3.64757085 
H    3.05405750  -1.45225882   2.01510017 
O    1.51094048   1.43269333   0.87225039 
O   -0.15933774   0.99909944   2.13620910 
C    0.68801915   1.85306994   1.71090215 
C    0.64456800   3.26056149   2.26284443 
H    0.78108836   3.99727887   1.47156563 
H    1.46605122   3.41964270   2.96852949 
H   -0.28703985   3.47733700   2.79169971 
H    2.41513854  -2.42850244  -0.41911054 
H   -0.10763700  -3.34250733  -0.30283642 
*
