! EnGrad PBEh-3c
%output 
xyzfile=True 
end 
%scf 
maxiter 250 
end
%output
Print[P_Hirshfeld] = 1
end
% maxcore
4000
*xyz 1 1
Ir   0.47951470  -0.67120987   1.00256741 
C   -0.10576287  -2.66613653   1.65488272 
C    0.82990482  -2.09829710   2.61598900 
C    1.92720489  -2.34759047   0.56655091 
C    0.61774487  -2.86809173   0.40818183 
C    2.06538098  -1.84160439   1.93844586 
N   -0.96099115   0.00968371  -0.42125065 
C   -2.40015058   0.06530525   0.02387088 
C   -2.85012473   1.50406879   0.32725462 
H   -3.88389889   1.46632524   0.67413768 
H   -2.84230446   2.13905254  -0.57224641 
H   -2.25473198   1.95614161   1.12674500 
C   -3.36854263  -0.60237620  -0.96436871 
H   -2.43708972  -0.51268195   0.96407789 
H   -4.34539543  -0.66888976  -0.48252785 
H   -3.53255494  -0.01280928  -1.87641715 
H   -3.06418497  -1.62037613  -1.23821747 
C   -0.67960393   0.30991066  -1.64234819 
C    0.63184558   0.27482925  -2.26535887 
H   -1.49762080   0.54478703  -2.32181619 
C    1.90883276   0.40488723  -1.71998480 
C    2.93268101   0.06487673  -2.66699754 
S    0.72005018   0.00468247  -3.96031370 
C    2.41810396  -0.09478119  -3.94625402 
H    2.09382443   0.71409392  -0.77253808 
H    3.95679956   0.05826532  -2.38993897 
H    3.00315857  -0.17126563  -4.82031162 
H   -1.05656371  -3.15399214   1.91763641 
H    0.59696448  -1.87123146   3.66549268 
H    2.96739222  -1.40077809   2.38011230 
O    1.59504156   1.44598106   0.75149625 
O   -0.06248075   1.05872091   2.05183698 
C    0.75445405   1.90670515   1.62113761 
C    0.73385456   3.30494246   2.14890011 
H    0.80735763   4.06636039   1.37424803 
H    1.57312457   3.48142115   2.82686825 
H   -0.17935705   3.50225479   2.72898818 
H    2.71016432  -2.33314477  -0.21071333 
H    0.19019509  -3.34503549  -0.49239977 
*
