! EnGrad PBEh-3c
%output 
xyzfile=True 
end 
%scf 
maxiter 250 
end
%output
Print[P_Hirshfeld] = 1
end
% maxcore
4000
*xyz 1 1
Ir   0.47095956  -0.65640577   1.02611890 
C   -0.07327737  -2.64388406   1.76552024 
C    0.95813644  -2.08972361   2.59732710 
C    1.79710238  -2.35498002   0.46394740 
C    0.48711567  -2.85392959   0.46650184 
C    2.09214740  -1.86560406   1.79427716 
N   -0.94453769   0.02516861  -0.41652129 
C   -2.38459584   0.11023654   0.01897116 
C   -2.83521386   1.55351570   0.21809413 
H   -3.86455526   1.54240720   0.57769352 
H   -2.82948854   2.11911800  -0.71821727 
H   -2.23339920   2.06251201   0.96912394 
C   -3.32997692  -0.62661638  -0.92818763 
H   -2.42594971  -0.39633221   0.98907115 
H   -4.31403513  -0.67169001  -0.46198410 
H   -3.47496595  -0.10911470  -1.87966785 
H   -3.01191504  -1.65135317  -1.12529549 
C   -0.64623814   0.30281546  -1.63754173 
C    0.66781073   0.24242957  -2.24456523 
H   -1.47652502   0.54605378  -2.30886064 
C    1.94473039   0.38669905  -1.73717711 
C    2.93877129   0.07890806  -2.67964547 
S    0.73615005  -0.01733371  -3.95999090 
C    2.43276546  -0.08318832  -3.94012997 
H    2.15613378   0.77579545  -0.78234226 
H    3.98026146   0.10447456  -2.43133730 
H    3.01272830  -0.19881305  -4.83389755 
H   -0.98983183  -3.09338608   2.13040444 
H    0.85782131  -1.87984335   3.65238403 
H    3.03078222  -1.43843288   2.11312975 
O    1.53352711   1.43626195   0.83982002 
O   -0.13332532   1.01511170   2.11354968 
C    0.70586126   1.86747449   1.68679451 
C    0.66854727   3.27248068   2.23224294 
H    0.78814338   4.01583177   1.44542950 
H    1.49480741   3.43623424   2.93048420 
H   -0.25812000   3.48402905   2.77485757 
H    2.49437221  -2.40289268  -0.36314229 
H   -0.02764965  -3.34318630  -0.35374655 
*
