! EnGrad PBEh-3c
%output 
xyzfile=True 
end 
%scf 
maxiter 250 
end
%output
Print[P_Hirshfeld] = 1
end
% maxcore
4000
*xyz 1 1
Ir   0.44773910  -0.65562519   1.03933761 
C   -0.01944446  -2.61509284   1.93299851 
C    1.15155796  -2.06937261   2.55414193 
C    1.58601009  -2.36437785   0.31259316 
C    0.30988237  -2.81868983   0.55453138 
C    2.13075555  -1.89721280   1.60080742 
N   -0.91229818   0.04548428  -0.39654053 
C   -2.35573709   0.17520479   0.01537556 
C   -2.80522353   1.62011044   0.05440356 
H   -3.84040374   1.65512155   0.43967349 
H   -2.80264147   2.08544514  -0.91877225 
H   -2.20207983   2.21535390   0.72931389 
C   -3.26633029  -0.66166365  -0.87901386 
H   -2.40590966  -0.21789135   1.00616490 
H   -4.27219335  -0.67602339  -0.42899696 
H   -3.38668949  -0.25322394  -1.87842543 
H   -2.93651401  -1.68786459  -0.96057808 
C   -0.61226155   0.28954243  -1.63034089 
C    0.67525007   0.19717634  -2.25285692 
H   -1.42871309   0.54556687  -2.28099561 
C    2.02922463   0.38563184  -1.61852732 
C    2.95347759   0.12234325  -2.72085815 
S    0.75264513  -0.05568759  -3.97707002 
C    2.46429594  -0.07550373  -3.95081027 
H    2.23753890   0.82754544  -0.85728544 
H    4.02748138   0.16699865  -2.49392857 
H    3.01962307  -0.24468805  -4.85609409 
H   -0.88804535  -2.98435227   2.42935148 
H    1.23681958  -1.89359703   3.62227028 
H    3.11109589  -1.49570432   1.72171688 
O    1.44360289   1.44213099   0.98902144 
O   -0.24828141   0.92714735   2.21277641 
C    0.63363755   1.81381607   1.79139742 
C    0.56819684   3.22866840   2.35743116 
H    0.76098257   3.93961673   1.54564152 
H    1.37661201   3.36373639   3.07846465 
H   -0.36448434   3.44487700   2.83113048 
H    2.16383403  -2.49186736  -0.57111535 
H   -0.33386868  -3.33316388  -0.14551504 
*
