! EnGrad PBEh-3c
%output 
xyzfile=True 
end 
%scf 
maxiter 250 
end
%output
Print[P_Hirshfeld] = 1
end
% maxcore
4000
*xyz 1 1
Ir   0.45467950  -0.64693235   1.04885593 
C   -0.02300019  -2.61679233   1.90704757 
C    1.12608876  -2.07382651   2.56621018 
C    1.61408081  -2.36517663   0.33343513 
C    0.33118898  -2.82693059   0.54119272 
C    2.12360616  -1.89516838   1.62029866 
N   -0.91904804   0.04230810  -0.40382197 
C   -2.36425349   0.16883782   0.01672120 
C   -2.80961231   1.61256740   0.07538329 
H   -3.84165304   1.64019458   0.45596276 
H   -2.80775251   2.09023054  -0.89608609 
H   -2.20619652   2.19648788   0.76104345 
C   -3.27451799  -0.65717101  -0.88410271 
H   -2.40900016  -0.24189861   1.00812872 
H   -4.27563210  -0.67528696  -0.43382809 
H   -3.39857679  -0.23467815  -1.87977522 
H   -2.94592439  -1.68491663  -0.98114966 
C   -0.61920294   0.29287459  -1.63400628 
C    0.70940767   0.20198285  -2.23346726 
H   -1.44074450   0.54647000  -2.28539548 
C    2.01570549   0.39930202  -1.63874395 
C    2.95072458   0.11213688  -2.69272051 
S    0.74901747  -0.05141339  -3.98033667 
C    2.45404982  -0.07471449  -3.95425357 
H    2.21975442   0.81099140  -0.86796239 
H    4.01494356   0.16075153  -2.48745688 
H    3.01965271  -0.23832883  -4.85400748 
H   -0.90198935  -3.00095048   2.39490847 
H    1.18949609  -1.89162745   3.62273040 
H    3.10118267  -1.48857395   1.77056135 
O    1.46823406   1.43346094   0.95401881 
O   -0.23220289   0.94408170   2.19914715 
C    0.63037786   1.81775358   1.78611867 
C    0.58275178   3.23405420   2.34079034 
H    0.76404679   3.94916952   1.53403700 
H    1.39254483   3.37420980   3.06108305 
H   -0.35497674   3.45288242   2.82712157 
H    2.20698483  -2.48293025  -0.54681172 
H   -0.29565248  -3.33358057  -0.16960049 
*
