! EnGrad PBEh-3c
%output 
xyzfile=True 
end 
%scf 
maxiter 250 
end
%output
Print[P_Hirshfeld] = 1
end
% maxcore
4000
*xyz 1 1
Ir   0.44022354  -0.66387580   1.03311395 
C   -0.01219632  -2.61115422   1.93545541 
C    1.15606893  -2.06829557   2.56044599 
C    1.58767685  -2.35714795   0.31651620 
C    0.29230292  -2.81914502   0.56345738 
C    2.13126520  -1.90096744   1.57893193 
N   -0.90806679   0.04781705  -0.39432865 
C   -2.34806509   0.17811212   0.00623102 
C   -2.80886867   1.62209254   0.05206795 
H   -3.83682782   1.66069983   0.43256943 
H   -2.80011725   2.08441788  -0.92904416 
H   -2.19969401   2.22208560   0.71816230 
C   -3.26799092  -0.66165583  -0.87349687 
H   -2.40522055  -0.21092844   1.00983101 
H   -4.26863398  -0.67645520  -0.42865276 
H   -3.38200279  -0.25924979  -1.87867927 
H   -2.93229472  -1.69044917  -0.95352202 
C   -0.60923439   0.28530356  -1.62296236 
C    0.68844158   0.20229827  -2.24476026 
H   -1.42667418   0.54603692  -2.28170975 
C    1.99388199   0.35184360  -1.68496186 
C    2.96330578   0.13415619  -2.70771916 
S    0.75867039  -0.05621390  -3.96506789 
C    2.46022026  -0.07799181  -3.95293833 
H    2.25468778   0.84980656  -0.82180716 
H    4.02907090   0.16840079  -2.49953729 
H    3.02055199  -0.24712820  -4.85693026 
H   -0.88610517  -2.97842790   2.44250260 
H    1.25333292  -1.89391163   3.62040128 
H    3.11729348  -1.49706636   1.70581149 
O    1.44757685   1.43944680   0.98912402 
O   -0.24011912   0.93012511   2.20990734 
C    0.60607764   1.81445336   1.81779239 
C    0.57029013   3.22141027   2.35526897 
H    0.75920099   3.93611384   1.55136282 
H    1.37052544   3.35990466   3.08483495 
H   -0.37160362   3.44155666   2.83389488 
H    2.14928836  -2.49440981  -0.58327940 
H   -0.34692553  -3.33167584  -0.13764924 
*
