! EnGrad PBEh-3c
%output 
xyzfile=True 
end 
%scf 
maxiter 250 
end
%output
Print[P_Hirshfeld] = 1
end
% maxcore
4000
*xyz 1 1
Ir   0.45703518  -0.64765341   1.04664503 
C   -0.02899453  -2.61974090   1.88745425 
C    1.10239047  -2.07720795   2.57235126 
C    1.64390672  -2.36098910   0.35309067 
C    0.34536314  -2.83261341   0.53464564 
C    2.11879697  -1.89255301   1.63554907 
N   -0.92360251   0.04091061  -0.40743326 
C   -2.36579767   0.16177364   0.01293421 
C   -2.81589970   1.60552886   0.09566909 
H   -3.84267563   1.62790747   0.47037545 
H   -2.81087162   2.09419879  -0.87570260 
H   -2.20940815   2.17969915   0.78785186 
C   -3.28426840  -0.65240598  -0.88767785 
H   -2.41184133  -0.26259614   1.00956713 
H   -4.27901515  -0.67488076  -0.43828412 
H   -3.40826830  -0.21851092  -1.88031069 
H   -2.95378207  -1.68191683  -0.99909490 
C   -0.61449479   0.29231737  -1.63274423 
C    0.71002193   0.21010376  -2.22328377 
H   -1.44953611   0.54740947  -2.29100144 
C    1.98459636   0.36409591  -1.72721158 
C    2.94787695   0.10837478  -2.68323559 
S    0.75032821  -0.04539110  -3.97039739 
C    2.45023801  -0.07361652  -3.94349991 
H    2.22557892   0.83453387  -0.81127712 
H    4.00821164   0.15367282  -2.48131568 
H    3.02068632  -0.23307503  -4.85198095 
H   -0.91197220  -3.01454189   2.36236543 
H    1.14825696  -1.89037204   3.62717184 
H    3.09285888  -1.48227793   1.81333539 
O    1.47545698   1.43293817   0.93879301 
O   -0.21550260   0.95652723   2.18528361 
C    0.63853333   1.82458804   1.77435941 
C    0.59572740   3.23651443   2.32464950 
H    0.76681001   3.95781417   1.52371781 
H    1.40570812   3.38281249   3.04542761 
H   -0.34520040   3.45824547   2.82228861 
H    2.24383555  -2.47425174  -0.52490541 
H   -0.26288249  -3.33552205  -0.19268273 
*
