! EnGrad PBEh-3c
%output 
xyzfile=True 
end 
%scf 
maxiter 250 
end
%output
Print[P_Hirshfeld] = 1
end
% maxcore
4000
*xyz 1 1
Ir   0.46882824  -0.64287525   1.04593768 
C   -0.05426650  -2.63184194   1.83489568 
C    1.03790817  -2.08541440   2.58209090 
C    1.71214956  -2.36173216   0.39925136 
C    0.41067045  -2.84395268   0.50290993 
C    2.10764017  -1.88014980   1.70655269 
N   -0.93681394   0.03388324  -0.41638324 
C   -2.37852322   0.13865369   0.01790894 
C   -2.82528533   1.58475342   0.14909646 
H   -3.85212259   1.58911318   0.51771144 
H   -2.82186784   2.10589963  -0.80823272 
H   -2.22058369   2.12803034   0.87132508 
C   -3.30526703  -0.64143255  -0.90611550 
H   -2.41927184  -0.32396543   1.00480489 
H   -4.29409871  -0.67329690  -0.44931476 
H   -3.43935155  -0.16914613  -1.88120788 
H   -2.97979157  -1.66995376  -1.05491384 
C   -0.62204560   0.29946267  -1.63660404 
C    0.68290565   0.21696479  -2.23640757 
H   -1.46579528   0.54714954  -2.30073168 
C    1.98487599   0.40011978  -1.69419651 
C    2.94895296   0.07945750  -2.69775487 
S    0.74406888  -0.03068070  -3.96454757 
C    2.44502619  -0.07381608  -3.93785127 
H    2.18563178   0.79884155  -0.82254409 
H    3.98766982   0.13386983  -2.45641592 
H    3.01753261  -0.21530283  -4.83964586 
H   -0.94398600  -3.05568902   2.26150679 
H    1.01983835  -1.88613980   3.64155212 
H    3.06563052  -1.46335296   1.94568676 
O    1.49938231   1.43117124   0.89111334 
O   -0.17951048   0.98680347   2.15230975 
C    0.67794351   1.84347872   1.72557053 
C    0.62667268   3.25251855   2.28549940 
H    0.77635358   3.98478995   1.48934306 
H    1.44697211   3.40908141   2.99564592 
H   -0.30822947   3.47414072   2.80427259 
H    2.35905278  -2.44726377  -0.45485756 
H   -0.16198331  -3.34239181  -0.26494364 
*
