! EnGrad PBEh-3c
%output 
xyzfile=True 
end 
%scf 
maxiter 250 
end
%output
Print[P_Hirshfeld] = 1
end
% maxcore
4000
*xyz 1 1
Ir   0.45337060  -0.65333918   1.04037445 
C   -0.02972500  -2.61984821   1.89176755 
C    1.10535545  -2.07590170   2.57020823 
C    1.64102732  -2.35951637   0.35179493 
C    0.34294279  -2.83029348   0.53717324 
C    2.12072984  -1.89227041   1.63339576 
N   -0.92096935   0.04170535  -0.40449771 
C   -2.36202562   0.16153869   0.01156181 
C   -2.81581725   1.60615788   0.09360285 
H   -3.84314134   1.62991356   0.46891264 
H   -2.80965152   2.09364269  -0.87754436 
H   -2.20871080   2.18179578   0.78392345 
C   -3.28383982  -0.65296188  -0.88735123 
H   -2.41130538  -0.25951509   1.00813423 
H   -4.27929258  -0.67506785  -0.43757654 
H   -3.40666488  -0.22062231  -1.87987457 
H   -2.95265948  -1.68183019  -0.99692724 
C   -0.61460528   0.29151310  -1.62963447 
C    0.69155878   0.20885352  -2.23714427 
H   -1.44462496   0.54671213  -2.29002205 
C    1.98883250   0.37035674  -1.69760087 
C    2.95511473   0.11046739  -2.69889285 
S    0.75201396  -0.04543232  -3.96611347 
C    2.45299698  -0.07563462  -3.94587387 
H    2.22556531   0.82972929  -0.81964651 
H    4.01083427   0.15379903  -2.48134181 
H    3.01959943  -0.23356128  -4.85017371 
H   -0.91084967  -3.01181916   2.36529652 
H    1.15334649  -1.89057399   3.62883204 
H    3.09490023  -1.48271704   1.80843370 
O    1.47080200   1.43526826   0.94573504 
O   -0.21477147   0.95460004   2.18553852 
C    0.63687807   1.82621520   1.77786098 
C    0.59444878   3.23498328   2.32556976 
H    0.76652097   3.95691115   1.52486525 
H    1.40343918   3.38114027   3.04680886 
H   -0.34494813   3.45597149   2.82160317 
H    2.23914735  -2.47446233  -0.52815419 
H   -0.26754395  -3.33604207  -0.19164577 
*
