! EnGrad PBEh-3c
%output 
xyzfile=True 
end 
%scf 
maxiter 250 
end
%output
Print[P_Hirshfeld] = 1
end
% maxcore
4000
*xyz -1 1
Pd  -2.32493143  -1.77089374   0.82651739 
Cl  -3.89360123  -3.11231399   0.03109027 
Cl  -1.17249887  -3.88599558   1.72292598 
Cl  -3.60816496   0.10025623   0.11929237 
N   -0.92289542  -0.24749709   1.45078008 
C   -1.20233575   0.27949747   2.61902371 
C   -0.70874042   1.51245787   3.05540232 
C    0.08168281   2.23149800   2.19308350 
C   -0.05775186   0.39300991   0.62058748 
C    0.42060492   1.68867515   0.94932621 
H    0.44774569   3.20954210   2.47138662 
H   -1.87467380  -0.28299268   3.24203742 
H   -0.98253932   1.88586053   4.02598300 
C    0.35894445  -0.30390592  -0.58606853 
C    1.22712978   2.41087388   0.02499648 
C    1.55405924   1.85876290  -1.17192224 
C    1.15435868   0.51487410  -1.50351342 
H    1.56241249   3.40340642   0.28059143 
H    2.15097674   2.42210918  -1.87787845 
C    0.15173053  -1.80608573  -0.82169860 
C    1.61930292  -0.05449916  -2.71295958 
C    0.56153714  -2.14242976  -2.08512287 
C    1.31705945  -1.33369988  -3.01348098 
H    2.20983691   0.54378325  -3.39344605 
H    1.68296712  -1.79577483  -3.92463964 
H   -0.15095968  -2.56362574  -0.19410791 
H    0.40076552  -3.15330173  -2.34791982 
*
