! EnGrad PBEh-3c
%output 
xyzfile=True 
end 
%scf 
maxiter 250 
end
%output
Print[P_Hirshfeld] = 1
end
% maxcore
4000
*xyz -1 1
Pd  -2.32314054  -1.76229186   0.82988136 
Cl  -3.89961020  -3.11856804   0.02923123 
Cl  -1.17503431  -3.87665506   1.72115966 
Cl  -3.60341058   0.09501322   0.12182674 
N   -0.91868996  -0.24937415   1.45085752 
C   -1.20482454   0.27723353   2.61909567 
C   -0.70765396   1.51353486   3.05475741 
C    0.08123512   2.23197212   2.19398197 
C   -0.06000201   0.38578324   0.61598328 
C    0.41921495   1.68437559   0.94819526 
H    0.44774524   3.20967051   2.47119251 
H   -1.87564428  -0.28345238   3.24351057 
H   -0.98253732   1.88594005   4.02644883 
C    0.36658315  -0.32126015  -0.58432146 
C    1.22693806   2.40960419   0.02398003 
C    1.54968008   1.85276444  -1.17092838 
C    1.14525009   0.50193568  -1.49291957 
H    1.56248873   3.40398905   0.28105318 
H    2.15047676   2.42107190  -1.87820458 
C    0.17861013  -1.71342228  -0.86836611 
C    1.61716295  -0.05204277  -2.70954961 
C    0.56469455  -2.15170461  -2.07724723 
C    1.30987953  -1.33977379  -3.00708494 
H    2.21130563   0.54480183  -3.39419080 
H    1.68080443  -1.79572942  -3.92385248 
H   -0.16104188  -2.58997820  -0.16947164 
H    0.40147769  -3.16218652  -2.35414629 
*
