! EnGrad PBEh-3c
%output 
xyzfile=True 
end 
%scf 
maxiter 250 
end
%output
Print[P_Hirshfeld] = 1
end
% maxcore
4000
*xyz -1 1
Pd  -2.31408293  -1.77859961   0.83393602 
Cl  -3.89153745  -3.13086581   0.02125831 
Cl  -1.16891160  -3.86112385   1.69841867 
Cl  -3.60663260   0.07917163   0.14756577 
N   -0.91871605  -0.25031278   1.45308757 
C   -1.20810982   0.28617769   2.61938303 
C   -0.70909656   1.51812299   3.04910788 
C    0.07887922   2.23316144   2.19467812 
C   -0.06282421   0.37460116   0.61668703 
C    0.41963649   1.68277876   0.94495314 
H    0.44998963   3.21470981   2.46913643 
H   -1.88183754  -0.27690250   3.24476405 
H   -0.98679760   1.89444790   4.02510995 
C    0.37663361  -0.32348062  -0.57993464 
C    1.23056115   2.40529754   0.02115655 
C    1.54705839   1.84400898  -1.16351663 
C    1.13888402   0.48905149  -1.48402419 
H    1.56925769   3.40509020   0.28337225 
H    2.15645712   2.41466032  -1.87563262 
C    0.18478803  -1.70289502  -0.85691040 
C    1.61477856  -0.04954949  -2.70300447 
C    0.57389748  -2.14687466  -2.09735061 
C    1.29301567  -1.35118147  -3.00075667 
H    2.21737299   0.54509165  -3.39005544 
H    1.67436810  -1.79369442  -3.92127316 
H   -0.16236760  -2.54951848  -0.18632138 
H    0.38774332  -3.17025437  -2.36199075 
*
