! EnGrad PBEh-3c
%output 
xyzfile=True 
end 
%scf 
maxiter 250 
end
%output
Print[P_Hirshfeld] = 1
end
% maxcore
4000
*xyz -1 1
Pd  -2.30123455  -1.80022788   0.84147137 
Cl  -3.87903244  -3.15463312   0.00702768 
Cl  -1.15756396  -3.83344767   1.65961905 
Cl  -3.61057076   0.04994390   0.19310431 
N   -0.91866570  -0.25501758   1.45793712 
C   -1.21438781   0.29946054   2.61954595 
C   -0.71655989   1.52442109   3.04633552 
C    0.07970753   2.23639059   2.18658710 
C   -0.06355049   0.36399018   0.62342477 
C    0.41586647   1.67414468   0.94373304 
H    0.45313761   3.22148272   2.46491194 
H   -1.89227641  -0.26481543   3.24682741 
H   -0.99330711   1.90809863   4.02019828 
C    0.39359353  -0.31672646  -0.56872792 
C    1.23594619   2.40052749   0.02050018 
C    1.54549271   1.82882428  -1.15714505 
C    1.14125678   0.47855999  -1.48091022 
H    1.57964069   3.40284371   0.28589297 
H    2.16197719   2.39771273  -1.86758341 
C    0.19451956  -1.69554560  -0.85730836 
C    1.60403876  -0.05455392  -2.68786732 
C    0.58151106  -2.14225859  -2.11269690 
C    1.27868913  -1.35807241  -3.00289435 
H    2.22422072   0.54303394  -3.37877609 
H    1.66058116  -1.79006663  -3.91550402 
H   -0.16439850  -2.48321590  -0.20983274 
H    0.36462892  -3.18029967  -2.37391901 
*
