! EnGrad PBEh-3c
%output 
xyzfile=True 
end 
%scf 
maxiter 250 
end
%output
Print[P_Hirshfeld] = 1
end
% maxcore
4000
*xyz 1 1
Ir   0.42560063  -0.67412549   1.08639285 
C    0.06914993  -2.55572142   2.08074319 
C    1.34347501  -2.04955230   2.50786704 
C    1.41033601  -2.36538552   0.21513172 
C    0.12067292  -2.77711679   0.68445515 
C    2.15910184  -1.94231628   1.35180421 
N   -0.85527414   0.08223157  -0.36766364 
C   -2.29456100   0.24311623  -0.00889499 
C   -2.75410283   1.68927402  -0.11305939 
H   -3.77647221   1.77962320   0.25208133 
H   -2.73596782   2.05204443  -1.14149060 
H   -2.13459444   2.35580598   0.48273871 
C   -3.19082712  -0.69227509  -0.81040886 
H   -2.37572213  -0.04335263   1.03753500 
H   -4.20001978  -0.67012285  -0.40117049 
H   -3.26678026  -0.40856955  -1.86086628 
H   -2.84036817  -1.72313623  -0.76580499 
C   -0.54437833   0.28606755  -1.59289538 
C    0.74058979   0.19995792  -2.23016874 
H   -1.35704162   0.54174989  -2.27240759 
C    2.02246039   0.36802281  -1.77353882 
C    3.01075541   0.19191314  -2.75522384 
S    0.77347357  -0.14380588  -3.92167328 
C    2.46711342  -0.10941761  -3.97270789 
H    2.30559253   0.80062232  -0.76464372 
H    4.07395302   0.27107216  -2.58588602 
H    2.99607848  -0.30656692  -4.89228307 
H   -0.77094601  -2.78427390   2.72150960 
H    1.63141810  -1.84713242   3.52869877 
H    3.16973644  -1.55775334   1.32649950 
O    1.33431494   1.32982504   1.13485792 
O   -0.37320484   0.85388616   2.31689169 
C    0.46041872   1.72796093   1.95814598 
C    0.45038469   3.12548816   2.45946559 
H    0.70617170   3.83048444   1.67074147 
H    1.19980195   3.23944912   3.24483664 
H   -0.51944623   3.37438713   2.88229684 
H    1.77834786  -2.47391269  -0.79321468 
H   -0.65922371  -3.21844200   0.08131822 
*
