! EnGrad PBEh-3c
%output 
xyzfile=True 
end 
%scf 
maxiter 250 
end
%output
Print[P_Hirshfeld] = 1
end
% maxcore
4000
*xyz 1 1
Ir   0.43727372  -0.65484200   1.09865983 
C    0.06749286  -2.55722264   2.07416180 
C    1.33930651  -2.05051245   2.50951917 
C    1.41521176  -2.37040109   0.21662916 
C    0.13019239  -2.77972811   0.67916388 
C    2.15794717  -1.94281039   1.36173385 
N   -0.85757118   0.08127034  -0.37116799 
C   -2.29982757   0.24138577  -0.00439842 
C   -2.75304482   1.68986746  -0.10939945 
H   -3.77705137   1.77507672   0.25645432 
H   -2.74019855   2.05330861  -1.13700279 
H   -2.13541738   2.35251816   0.49253289 
C   -3.19170842  -0.69296988  -0.81347020 
H   -2.37662128  -0.05093497   1.03966267 
H   -4.20078189  -0.66989315  -0.40232988 
H   -3.27128695  -0.40324918  -1.86211172 
H   -2.84293178  -1.72424203  -0.77168281 
C   -0.54511053   0.29111678  -1.59734480 
C    0.75454555   0.20224210  -2.22239185 
H   -1.36201210   0.54129819  -2.27386791 
C    2.03461648   0.38877055  -1.75808515 
C    3.00565232   0.18709991  -2.74929589 
S    0.76971096  -0.14603527  -3.92755054 
C    2.46431786  -0.10941974  -3.97299732 
H    2.29040389   0.78262338  -0.78346111 
H    4.06949356   0.27115971  -2.58294312 
H    2.99500605  -0.30510803  -4.89271987 
H   -0.77586223  -2.78466019   2.71253776 
H    1.62003043  -1.84321856   3.52939250 
H    3.16738823  -1.55579024   1.34014760 
O    1.33165292   1.30688366   1.12378137 
O   -0.37725962   0.86012685   2.31848890 
C    0.46633061   1.72435250   1.94883447 
C    0.45267539   3.12682396   2.45732461 
H    0.70724257   3.83132132   1.66651925 
H    1.20576189   3.24177526   3.23972288 
H   -0.51590660   3.37900513   2.88239441 
H    1.79134729  -2.47053308  -0.78947182 
H   -0.65207054  -3.21488545   0.07396348 
*
