! EnGrad PBEh-3c
%output 
xyzfile=True 
end 
%scf 
maxiter 250 
end
%output
Print[P_Hirshfeld] = 1
end
% maxcore
4000
*xyz 1 1
Ir   0.43965154  -0.66099101   1.10098901 
C    0.06079920  -2.56041624   2.06179266 
C    1.32470274  -2.04797345   2.51549746 
C    1.43940960  -2.36479116   0.22539949 
C    0.14741392  -2.77905376   0.66961160 
C    2.16224658  -1.94118709   1.38480468 
N   -0.85528208   0.08667355  -0.36867498 
C   -2.29930683   0.23411173  -0.00126562 
C   -2.75377818   1.68511119  -0.09436484 
H   -3.77851082   1.76462121   0.26977961 
H   -2.74865067   2.05652240  -1.12053525 
H   -2.13818959   2.34218974   0.51792244 
C   -3.19501231  -0.69195107  -0.81979256 
H   -2.37799167  -0.07182576   1.04028374 
H   -4.20365355  -0.67085235  -0.40575126 
H   -3.28230135  -0.38867327  -1.86412489 
H   -2.84995254  -1.72553065  -0.78971171 
C   -0.54433936   0.30079790  -1.59498681 
C    0.74333137   0.21775261  -2.22902520 
H   -1.36187630   0.53762935  -2.27758289 
C    2.03533261   0.40622908  -1.75531414 
C    3.00651020   0.18719131  -2.75836229 
S    0.76670433  -0.14957672  -3.91789237 
C    2.46160719  -0.11494106  -3.97002822 
H    2.27054215   0.75436339  -0.78069190 
H    4.06833909   0.27350002  -2.57691212 
H    2.98930608  -0.30352378  -4.89145706 
H   -0.79348960  -2.78137264   2.68299988 
H    1.58882650  -1.82947666   3.53925902 
H    3.16920178  -1.55082301   1.38217129 
O    1.31808174   1.26834633   1.11253648 
O   -0.38583510   0.87363637   2.32127180 
C    0.47060966   1.71906397   1.93249872 
C    0.46705386   3.12435925   2.43978927 
H    0.71172701   3.83319791   1.65138487 
H    1.22221560   3.24236383   3.21972257 
H   -0.49569682   3.38170370   2.87503969 
H    1.82904381  -2.45418117  -0.77666668 
H   -0.63323663  -3.19470222   0.04918070 
*
