! EnGrad PBEh-3c
%output 
xyzfile=True 
end 
%scf 
maxiter 250 
end
%output
Print[P_Hirshfeld] = 1
end
% maxcore
4000
*xyz 1 1
Ir   0.43630208  -0.66339798   1.09986609 
C    0.05905817  -2.56169776   2.05864075 
C    1.32096090  -2.04753017   2.51845141 
C    1.44515109  -2.36221664   0.22805126 
C    0.15217039  -2.77824459   0.66572434 
C    2.16402944  -1.94029261   1.39247110 
N   -0.85501244   0.08703315  -0.36761164 
C   -2.29916406   0.23240873  -0.00055790 
C   -2.75418500   1.68291439  -0.08954377 
H   -3.77916332   1.76159684   0.27435830 
H   -2.74988839   2.05713413  -1.11431017 
H   -2.13942871   2.33867800   0.52434797 
C   -3.19539892  -0.69118819  -0.82143882 
H   -2.37783283  -0.07740697   1.03900823 
H   -4.20397892  -0.67118298  -0.40646945 
H   -3.28490251  -0.38460481  -1.86456042 
H   -2.85193583  -1.72531367  -0.79539633 
C   -0.54604415   0.30264138  -1.59432456 
C    0.74525202   0.22326323  -2.22859537 
H   -1.36168190   0.53691298  -2.27736286 
C    2.03236549   0.40671161  -1.75645921 
C    3.00516217   0.19076897  -2.75488075 
S    0.76448845  -0.15106912  -3.91992763 
C    2.46018560  -0.11680694  -3.97086337 
H    2.26712852   0.74758118  -0.77819792 
H    4.06874149   0.27440066  -2.57662221 
H    2.98727741  -0.30443482  -4.89239728 
H   -0.80017089  -2.78029653   2.67475973 
H    1.57935075  -1.82520052   3.54261690 
H    3.17140176  -1.54888377   1.39499546 
O    1.31725541   1.26437668   1.11029255 
O   -0.38858181   0.87375431   2.32112672 
C    0.46853975   1.71647436   1.93104430 
C    0.47171074   3.12349994   2.43384827 
H    0.71401430   3.83372010   1.64524327 
H    1.22779315   3.24112266   3.21274057 
H   -0.48882296   3.38073037   2.87158556 
H    1.84031953  -2.44825104  -0.77227398 
H   -0.62778801  -3.18835728   0.04094583 
*
