! EnGrad PBEh-3c
%output 
xyzfile=True 
end 
%scf 
maxiter 250 
end
%output
Print[P_Hirshfeld] = 1
end
% maxcore
4000
*xyz 1 1
Ir   0.43240880  -0.66604563   1.09824157 
C    0.05543498  -2.56367699   2.05277736 
C    1.31363682  -2.04762560   2.52402805 
C    1.45645722  -2.35639495   0.23394655 
C    0.15880818  -2.77689953   0.65954789 
C    2.16658806  -1.93837617   1.40446128 
N   -0.85619561   0.08669600  -0.36770784 
C   -2.29932463   0.22927944  -0.00036724 
C   -2.75575182   1.67897294  -0.08060101 
H   -3.78014522   1.75616234   0.28273788 
H   -2.75113221   2.05809620  -1.10328593 
H   -2.14145081   2.33259041   0.53526301 
C   -3.19648437  -0.68958119  -0.82415366 
H   -2.37745857  -0.08700065   1.03735201 
H   -4.20377984  -0.67171030  -0.40758322 
H   -3.28884870  -0.37755422  -1.86535256 
H   -2.85499913  -1.72471262  -0.80543995 
C   -0.54417731   0.30452484  -1.59275423 
C    0.74099310   0.23056251  -2.22972279 
H   -1.36299481   0.53649315  -2.27697315 
C    2.02972812   0.40604622  -1.75995737 
C    3.00192098   0.19511305  -2.75551249 
S    0.76199743  -0.15235751  -3.92187283 
C    2.45917306  -0.11755836  -3.96602436 
H    2.26304305   0.73770048  -0.77020381 
H    4.06789910   0.27645636  -2.57660386 
H    2.98402405  -0.30703146  -4.89462306 
H   -0.81175213  -2.77850567   2.66035343 
H    1.56263440  -1.81767531   3.54886877 
H    3.17475915  -1.54544162   1.41760347 
O    1.31465782   1.26055590   1.10847380 
O   -0.39320145   0.87176597   2.31999626 
C    0.46637536   1.71301717   1.92833113 
C    0.47960349   3.12115722   2.42318231 
H    0.71851345   3.83323885   1.63373693 
H    1.23826808   3.23800869   3.19992977 
H   -0.47783794   3.37906482   2.86562462 
H    1.85989998  -2.43728423  -0.76429828 
H   -0.61807318  -3.17756742   0.02598431 
*
