! EnGrad PBEh-3c
%output 
xyzfile=True 
end 
%scf 
maxiter 250 
end
%output
Print[P_Hirshfeld] = 1
end
% maxcore
4000
*xyz 1 1
Ir   0.57790137  -0.77403374   0.48857331 
C    0.10112319  -2.90852940   0.97275415 
C    0.04350826  -2.22189595   2.21171027 
C    2.16867823  -1.96018551   1.32911287 
C    1.39165569  -2.77508928   0.42282743 
C    1.34646796  -1.67424498   2.42960058 
N   -1.13026117  -0.16124502  -0.53498247 
C   -2.50884966  -0.19042483   0.02800167 
C   -2.75441300   0.99521167   0.94514414 
H   -3.76166317   0.93651409   1.35873096 
H   -2.67260551   1.93165527   0.39515256 
H   -2.07603989   0.99851043   1.78690137 
C   -3.60260036  -0.29958762  -1.02200324 
H   -2.54847434  -1.08947525   0.62697583 
H   -4.55637267  -0.47184679  -0.51251438 
H   -3.72846648   0.61296135  -1.59861520 
H   -3.44634489  -1.14082769  -1.68930286 
C   -0.92342340   0.20955881  -1.74880963 
C    0.39979552   0.17119213  -2.29945715 
H   -1.73683510   0.51545101  -2.38129223 
C    1.45313519  -0.21695289  -1.47883254 
C    2.65722130  -0.26335659  -2.32193655 
S    0.79349324   0.39423766  -3.96326322 
C    2.42579131   0.05282517  -3.64756852 
H    2.20379677   1.37789517  -0.71413793 
H    3.65238359  -0.50594130  -1.97935486 
H    3.15210585   0.04760811  -4.45074503 
H   -0.63109434  -3.61547456   0.61339340 
H   -0.75152307  -2.23764286   2.93781609 
H    1.64591453  -1.18318458   3.33829937 
O    2.14225578   2.13624244   0.01792542 
O    0.46913273   1.20871262   1.26946428 
C    1.20672655   2.16797481   0.95287634 
C    1.02394246   3.50126360   1.71498389 
H    0.91610326   4.31966890   1.00633982 
H    1.91667218   3.70892599   2.30835074 
H    0.16297680   3.47164817   2.37952893 
H    3.21660603  -1.75435111   1.24199499 
H    1.76064665  -3.31582582  -0.43335814 
*
