! EnGrad PBEh-3c
%output 
xyzfile=True 
end 
%scf 
maxiter 250 
end
%output
Print[P_Hirshfeld] = 1
end
% maxcore
4000
*xyz 1 1
Ir   0.61437541  -0.77084543   0.44216820 
C    0.09098662  -2.92216330   1.01912877 
C    0.08721287  -2.19607398   2.24070295 
C    2.18613035  -2.01597620   1.29318637 
C    1.36479154  -2.78521628   0.41416322 
C    1.38398197  -1.68470558   2.41672142 
N   -1.12882149  -0.16273044  -0.55122824 
C   -2.50100781  -0.17880308   0.02707092 
C   -2.76704848   1.02844445   0.91679166 
H   -3.78105675   0.97036459   1.31015327 
H   -2.68072428   1.95601453   0.34877983 
H   -2.08611906   1.06139202   1.76602209 
C   -3.59513209  -0.32150384  -1.02257264 
H   -2.53478994  -1.07753239   0.65629470 
H   -4.53893818  -0.48845510  -0.51686953 
H   -3.72352031   0.57924544  -1.62965024 
H   -3.42072617  -1.17439684  -1.68283555 
C   -0.91688191   0.21354317  -1.76108242 
C    0.40503754   0.15649173  -2.27453221 
H   -1.74840607   0.52358860  -2.38286349 
C    1.45244173  -0.21020412  -1.46250712 
C    2.63736078  -0.24562319  -2.29292748 
S    0.78181809   0.39331580  -3.95391310 
C    2.41564661   0.03087820  -3.63296558 
H    2.13156371   1.43697330  -0.55505788 
H    3.66154089  -0.48063514  -1.99440030 
H    3.13421275   0.04283707  -4.46413519 
H   -0.68641411  -3.58068613   0.66222630 
H   -0.70254516  -2.19898917   2.98020191 
H    1.73260173  -1.17165424   3.30240226 
O    2.11551487   2.12195064   0.01837701 
O    0.48704741   1.19967273   1.26302056 
C    1.21888356   2.13579783   0.94368608 
C    1.03361773   3.45326050   1.70613031 
H    0.91243961   4.31060694   1.02765756 
H    1.89952990   3.69671131   2.33465473 
H    0.15190305   3.46137343   2.38736385 
H    3.22991361  -1.79294096   1.16791084 
H    1.68108909  -3.31694280  -0.46624293 
*
