! EnGrad PBEh-3c
%output 
xyzfile=True 
end 
%scf 
maxiter 250 
end
%output
Print[P_Hirshfeld] = 1
end
% maxcore
4000
*xyz 1 1
Ir   0.62064211  -0.77870138   0.44504054 
C    0.08254037  -2.92356425   1.03802957 
C    0.11203635  -2.18498430   2.25483222 
C    2.19428668  -2.03887290   1.26945161 
C    1.34905980  -2.79237610   0.40772112 
C    1.40706209  -1.68771364   2.40666804 
N   -1.12461043  -0.16228946  -0.55558011 
C   -2.49191863  -0.17348209   0.02393492 
C   -2.77196741   1.04478628   0.89924573 
H   -3.79041993   0.98952729   1.28505622 
H   -2.68557645   1.96800144   0.32238968 
H   -2.09408600   1.09554392   1.75306596 
C   -3.58858112  -0.33360460  -1.02294058 
H   -2.52840846  -1.06587483   0.66968738 
H   -4.53261611  -0.49825943  -0.51901677 
H   -3.72005484   0.55932938  -1.64437233 
H   -3.40719621  -1.19199049  -1.67684000 
C   -0.91757968   0.21260353  -1.76138727 
C    0.40034342   0.15618886  -2.27163474 
H   -1.75069827   0.52868401  -2.38556179 
C    1.45796725  -0.20772062  -1.47282570 
C    2.63369265  -0.24052398  -2.28708771 
S    0.77873150   0.38788177  -3.94160687 
C    2.41132819   0.02401438  -3.62238420 
H    2.10583647   1.38203664  -0.55330855 
H    3.66291599  -0.46553631  -2.00034923 
H    3.12163998   0.03837884  -4.46389051 
H   -0.71458072  -3.56223228   0.69217511 
H   -0.67403798  -2.17754165   3.00376493 
H    1.77995103  -1.16708047   3.28131296 
O    2.10191415   2.19283875   0.08724674 
O    0.50328143   1.19248596   1.25230990 
C    1.20175728   2.14075444   0.96619966 
C    1.03438746   3.43599245   1.70809088 
H    0.91221132   4.29994906   1.03930594 
H    1.88981980   3.68744085   2.34633387 
H    0.15309552   3.45088780   2.38430896 
H    3.23612320  -1.81678487   1.12739922 
H    1.63830450  -3.32174817  -0.48323662 
*
