! EnGrad PBEh-3c
%output 
xyzfile=True 
end 
%scf 
maxiter 250 
end
%output
Print[P_Hirshfeld] = 1
end
% maxcore
4000
*xyz 1 1
Ir   0.63346916  -0.78168106   0.43708004 
C    0.07534615  -2.92417369   1.06357637 
C    0.13124030  -2.17740131   2.26893682 
C    2.20410764  -2.06294930   1.25120282 
C    1.32559383  -2.80561654   0.39859512 
C    1.44711048  -1.68958387   2.39290204 
N   -1.12083286  -0.16332270  -0.55839704 
C   -2.48723336  -0.17016260   0.02528601 
C   -2.77558658   1.06573035   0.88027030 
H   -3.80138170   1.01145765   1.25444106 
H   -2.69130602   1.98222443   0.29137970 
H   -2.10400642   1.13602255   1.73638624 
C   -3.57845030  -0.34752563  -1.02772912 
H   -2.51968905  -1.05058762   0.68400212 
H   -4.52550779  -0.51002624  -0.52023921 
H   -3.71619746   0.53492045  -1.66136920 
H   -3.39153851  -1.21194418  -1.66920342 
C   -0.92198028   0.21418309  -1.76480361 
C    0.39872285   0.15497096  -2.27272572 
H   -1.75229001   0.53366100  -2.38672123 
C    1.45819827  -0.20438040  -1.45976775 
C    2.63707914  -0.23402501  -2.28287311 
S    0.77458613   0.38307331  -3.93181036 
C    2.40462695   0.01663115  -3.61874405 
H    2.07123654   1.37013315  -0.50342706 
H    3.66460528  -0.44852745  -2.00598701 
H    3.10701765   0.03353462  -4.46351338 
H   -0.74792676  -3.53912777   0.72704921 
H   -0.63966305  -2.15170317   3.03126873 
H    1.83525780  -1.16158459   3.25516187 
O    2.10555351   2.21743978   0.09785022 
O    0.50418917   1.16879633   1.24969781 
C    1.19038069   2.14938651   0.99321378 
C    1.02659569   3.42669482   1.72087062 
H    0.91195721   4.28719078   1.05295064 
H    1.87890603   3.67560042   2.35999511 
H    0.15308136   3.44016785   2.38277495 
H    3.24236573  -1.84473675   1.07885763 
H    1.58783998  -3.32654731  -0.50429134 
*
