! EnGrad PBEh-3c
%output 
xyzfile=True 
end 
%scf 
maxiter 250 
end
%output
Print[P_Hirshfeld] = 1
end
% maxcore
4000
*xyz 1 1
Ir   0.65459946  -0.79637013   0.43746027 
C    0.05673239  -2.91934175   1.11960781 
C    0.18118837  -2.15959494   2.30476495 
C    2.22334519  -2.11826156   1.19925651 
C    1.27076297  -2.83764161   0.37689305 
C    1.54007148  -1.69385130   2.35630811 
N   -1.11082287  -0.16655467  -0.55775737 
C   -2.47339554  -0.16018477   0.02626608 
C   -2.78436244   1.11448968   0.83162762 
H   -3.82434484   1.06466917   1.18117571 
H   -2.70516502   2.01465551   0.21512651 
H   -2.12944372   1.23347022   1.69488484 
C   -3.55524593  -0.38158967  -1.03573632 
H   -2.49942361  -1.01026293   0.71665738 
H   -4.50792653  -0.53882822  -0.52450342 
H   -3.70577196   0.47496929  -1.70030970 
H   -3.35385027  -1.26056646  -1.64921773 
C   -0.93059196   0.21634327  -1.77126802 
C    0.39383120   0.15483418  -2.27172718 
H   -1.75422056   0.54614261  -2.39028489 
C    1.45965015  -0.19381318  -1.44717706 
C    2.64443041  -0.22287566  -2.27446479 
S    0.76593874   0.36877151  -3.91019805 
C    2.38984165   0.00453168  -3.61216539 
H    2.00114652   1.35312276  -0.39099272 
H    3.66911284  -0.40776379  -2.01543370 
H    3.07120532   0.02051601  -4.45695088 
H   -0.82717325  -3.48296859   0.81360351 
H   -0.55253293  -2.08871966   3.09589864 
H    1.96905066  -1.14904804   3.18942748 
O    2.09034040   2.24858344   0.13434407 
O    0.51155264   1.12505773   1.24402571 
C    1.17462678   2.17006054   1.04304817 
C    1.00141832   3.41774793   1.76472239 
H    0.91197944   4.25463355   1.08333291 
H    1.85471822   3.64517131   2.39297789 
H    0.14843042   3.41317249   2.38295773 
H    3.25733350  -1.91457292   0.96075142 
H    1.46597788  -3.34177049  -0.55329626 
*
