! EnGrad PBEh-3c
%output 
xyzfile=True 
end 
%scf 
maxiter 250 
end
%output
Print[P_Hirshfeld] = 1
end
% maxcore
4000
*xyz 1 1
Ir   0.63882917  -0.78540716   0.43717649 
C    0.07062450  -2.92294800   1.07778956 
C    0.14391036  -2.17288446   2.27802515 
C    2.20898752  -2.07698006   1.23802587 
C    1.31168518  -2.81374017   0.39309007 
C    1.47069140  -1.69066636   2.38361946 
N   -1.11829368  -0.16414254  -0.55823478 
C   -2.48372320  -0.16763158   0.02553462 
C   -2.77781271   1.07809887   0.86793137 
H   -3.80720664   1.02495554   1.23585623 
H   -2.69482155   1.99045105   0.27203696 
H   -2.11045896   1.16074157   1.72585880 
C   -3.57256417  -0.35616647  -1.02976027 
H   -2.51454842  -1.04035867   0.69228561 
H   -4.52104804  -0.51733228  -0.52132089 
H   -3.71355288   0.51971296  -1.67124703 
H   -3.38197833  -1.22427793  -1.66413375 
C   -0.92416476   0.21473105  -1.76644341 
C    0.39748201   0.15493627  -2.27247242 
H   -1.75277972   0.53682714  -2.38762520 
C    1.45856656  -0.20169987  -1.45657394 
C    2.63894390  -0.23119682  -2.28074022 
S    0.77239259   0.37944545  -3.92632808 
C    2.40087644   0.01356194  -3.61707528 
H    2.05345718   1.36581822  -0.47490645 
H    3.66574869  -0.43818715  -2.00838330 
H    3.09793333   0.03023226  -4.46184870 
H   -0.76802879  -3.52488217   0.74900497 
H   -0.61756122  -2.13572648   3.04766306 
H    1.86919632  -1.15840451   3.23848738 
O    2.10169448   2.22533983   0.10710742 
O    0.50605703   1.15770139   1.24825900 
C    1.18638448   2.15463078   1.00585501 
C    1.02020908   3.42442531   1.73199426 
H    0.91196285   4.27893216   1.06065755 
H    1.87277043   3.66788163   2.36836167 
H    0.15190158   3.43332008   2.38282132 
H    3.24616252  -1.86245172   1.04889826 
H    1.55692787  -3.33040889  -0.51672216 
*
