! EnGrad PBEh-3c
%output 
xyzfile=True 
end 
%scf 
maxiter 250 
end
%output
Print[P_Hirshfeld] = 1
end
% maxcore
4000
*xyz -1 1
C   -1.66285804   0.05275634   0.54535066 
C   -1.52318674   0.98747644   1.57621125 
C   -2.80336403   0.15171813  -0.26215354 
C   -3.73455910   1.16794063  -0.12494543 
C   -3.57757139   2.10477382   0.88196939 
C   -2.49905774   1.97676762   1.73561523 
H   -1.48813797  -3.25477417  -2.31103577 
H   -2.99345270  -0.60357988  -1.01293087 
H   -2.45009313   2.64137053   2.59367053 
H   -4.58970093   1.21630246  -0.78999593 
H   -4.31139347   2.88840378   1.02948957 
C   -0.45801218   0.95802421   2.64752470 
C    0.85885536   0.21977585   2.44127426 
H   -0.92262499   0.58792662   3.57080923 
H   -0.19265376   1.99493427   2.88614558 
C    1.57637675   0.66965130   1.20238434 
H    0.67974092  -0.85670246   2.41317919 
H    1.48931284   0.38816247   3.32217992 
C    1.24880442   0.09879900  -0.03271055 
C    1.93230825   0.55659148  -1.15810405 
C    2.90979023   1.54179557  -1.07761165 
C    2.60240436   1.60501552   1.29040749 
C    3.23559159   2.08543947   0.15354953 
H    1.75148295   0.11147637  -2.13006637 
H    3.42621100   1.86580049  -1.97383125 
H    2.90966585   1.96650283   2.26705285 
H    3.99942678   2.84973175   0.22975545 
Pd  -0.07112551  -1.37736710  -0.12341087 
Br  -1.67812912  -3.45954562   0.12776786 
P    1.55258631  -2.95817932  -0.45060173 
H    1.90019849  -3.73719243   0.67210125 
C   -0.13281859  -1.92880045  -3.61401720 
O    0.91440367  -1.76723325  -4.18080732 
O   -0.61657053  -3.10353454  -3.30560484 
O   -1.01293373  -0.94372317  -3.41028663 
H    2.86686830  -2.57268437  -0.78609382 
H    1.43052537  -4.02903073  -1.35017099 
H   -0.56635563  -0.09479841  -3.49205792 
*
