! EnGrad PBEh-3c
%output 
xyzfile=True 
end 
%scf 
maxiter 250 
end
%output
Print[P_Hirshfeld] = 1
end
% maxcore
4000
*xyz -1 1
C   -1.61859717   0.08443643   0.48207564 
C   -1.51725153   1.01407977   1.52680371 
C   -2.83116368   0.09441770  -0.23361907 
C   -3.85368513   1.00139839   0.01691730 
C   -3.69066829   1.96619949   0.99877801 
C   -2.53163489   1.95244617   1.74458057 
H   -1.34163047  -2.87630391  -2.46495055 
H   -3.01260138  -0.67001591  -0.98245430 
H   -2.38717435   2.68811801   2.53300245 
H   -4.78144124   0.94482374  -0.54538722 
H   -4.43510322   2.72855404   1.16343279 
C   -0.43019014   1.05421039   2.57724589 
C    0.84895173   0.26209613   2.39029304 
H   -0.87994697   0.71898574   3.51675235 
H   -0.15738932   2.10229794   2.74399967 
C    1.59626086   0.67194692   1.15729874 
H    0.62382510  -0.80769199   2.37054616 
H    1.47151554   0.42165716   3.27539395 
C    1.22566919   0.13568477  -0.08081164 
C    1.98866686   0.51312753  -1.19215591 
C    3.01324533   1.45012971  -1.08828055 
C    2.63792742   1.58475066   1.25898578 
C    3.32886929   2.01118703   0.13727445 
H    1.84068882   0.04626368  -2.16064179 
H    3.57859053   1.74152107  -1.96252115 
H    2.90725864   1.96565395   2.23768648 
H    4.10197766   2.76531826   0.22971640 
Pd  -0.17092755  -1.30342406  -0.05703806 
Br  -1.71146345  -3.39483529   0.00526729 
P    1.50282044  -2.92521305  -0.39721356 
H    1.75504864  -3.69564988   0.75087373 
C   -0.14376944  -1.90054890  -3.62858434 
O    0.94698891  -1.78149038  -4.12923548 
O   -0.71842207  -3.00821992  -3.20646523 
O   -0.93705514  -0.87239823  -3.40627339 
H    2.84956803  -2.62616448  -0.66535635 
H    1.39810943  -4.00358309  -1.28789238 
H   -0.47182871  -0.05791643  -3.61197221 
*
