! EnGrad PBEh-3c
%output 
xyzfile=True 
end 
%scf 
maxiter 250 
end
%output
Print[P_Hirshfeld] = 1
end
% maxcore
4000
*xyz -1 1
C   -1.61922502   0.08992248   0.48208308 
C   -1.51674959   1.01453144   1.53231797 
C   -2.82839785   0.10222207  -0.24178152 
C   -3.84278405   1.01596514   0.00706622 
C   -3.68146395   1.97806651   0.98891746 
C   -2.53265473   1.94997774   1.74656943 
H   -1.32948015  -2.88684362  -2.47144433 
H   -3.01336212  -0.66417244  -0.98905368 
H   -2.39025865   2.68047273   2.53233565 
H   -4.75921656   0.97204333  -0.56559406 
H   -4.41932177   2.74737177   1.14717131 
C   -0.43013803   1.04604171   2.58824573 
C    0.84979405   0.25501568   2.39319124 
H   -0.88344690   0.70216278   3.52138606 
H   -0.16492608   2.09154104   2.75826449 
C    1.59512836   0.66898682   1.15963148 
H    0.62854301  -0.81569621   2.37243088 
H    1.46989828   0.41845308   3.27823620 
C    1.21991848   0.13412242  -0.07823338 
C    1.98248973   0.51490120  -1.18988803 
C    3.00518493   1.45744763  -1.08704667 
C    2.63611691   1.58465247   1.26150226 
C    3.32050469   2.02150626   0.13813631 
H    1.83793300   0.05171442  -2.16027365 
H    3.56773121   1.75818829  -1.96339457 
H    2.90839238   1.96462439   2.24072313 
H    4.09224279   2.77951307   0.23214231 
Pd  -0.18149024  -1.30256879  -0.04011055 
Br  -1.70207660  -3.40213246   0.01497019 
P    1.50975693  -2.92854226  -0.40399122 
H    1.77034094  -3.69965279   0.74221463 
C   -0.14838808  -1.90283942  -3.62332876 
O    0.92945155  -1.80212137  -4.11962659 
O   -0.70031609  -3.03182942  -3.21668515 
O   -0.96842208  -0.86686172  -3.39517467 
H    2.85404092  -2.62492001  -0.67763478 
H    1.40355956  -4.00816234  -1.29455075 
H   -0.47524721  -0.06454847  -3.60574276 
*
