! EnGrad PBEh-3c
%output 
xyzfile=True 
end 
%scf 
maxiter 250 
end
%output
Print[P_Hirshfeld] = 1
end
% maxcore
4000
*xyz -1 1
C   -1.61556360   0.07807763   0.47998448 
C   -1.51736802   1.01336916   1.52103021 
C   -2.83530611   0.08340105  -0.22362922 
C   -3.86580523   0.98244164   0.02873076 
C   -3.69987725   1.95352326   1.00855845 
C   -2.53070673   1.95495860   1.74257655 
H   -1.35289361  -2.85982537  -2.45974115 
H   -3.01273544  -0.67673547  -0.97413441 
H   -2.38545610   2.69534337   2.53213495 
H   -4.80430909   0.91477974  -0.52127844 
H   -4.45566472   2.70846089   1.18336953 
C   -0.42891522   1.06597819   2.56740290 
C    0.84816132   0.26926165   2.38640344 
H   -0.87670560   0.73899498   3.51200169 
H   -0.14880224   2.11446546   2.72665590 
C    1.59801078   0.67318260   1.15454406 
H    0.61876971  -0.79852717   2.36825167 
H    1.47279597   0.42605731   3.27190628 
C    1.23217501   0.13537171  -0.08378443 
C    1.99559524   0.50960299  -1.19466192 
C    3.02264049   1.44265180  -1.08924920 
C    2.63926465   1.58579738   1.25665350 
C    3.33881148   2.00031236   0.13665534 
H    1.84295005   0.04021646  -2.16127384 
H    3.59206763   1.72290642  -1.96405708 
H    2.90670979   1.96765836   2.23490233 
H    4.11469686   2.74891259   0.22659623 
Pd  -0.16468094  -1.30348564  -0.07446018 
Br  -1.72195433  -3.38596297  -0.00635339 
P    1.49475159  -2.92175929  -0.38964657 
H    1.73729077  -3.69139438   0.76182380 
C   -0.11426424  -1.89265433  -3.63566208 
O    0.94221269  -1.77710015  -4.13017628 
O   -0.72474035  -2.99216273  -3.20426443 
O   -0.92202192  -0.86167898  -3.41610396 
H    2.84657772  -2.62613148  -0.65145675 
H    1.39131643  -3.99939784  -1.28119914 
H   -0.46232978  -0.04666491  -3.62054675 
*
