! EnGrad PBEh-3c
%output 
xyzfile=True 
end 
%scf 
maxiter 250 
end
%output
Print[P_Hirshfeld] = 1
end
% maxcore
4000
*xyz -1 1
C   -1.60116549   0.04234178   0.49999795 
C   -1.52782873   0.97962554   1.56270759 
C   -2.80436839   0.12923704  -0.24872644 
C   -3.76608923   1.12886156  -0.08997196 
C   -3.60840619   2.08093368   0.90647785 
C   -2.51303210   1.97402684   1.74017799 
H   -1.32994456  -3.14666971  -2.46996453 
H   -3.00585832  -0.61368292  -1.01221252 
H   -2.43934053   2.66064737   2.58397264 
H   -4.63948302   1.16532157  -0.73809905 
H   -4.34093763   2.86426799   1.05782808 
C   -0.45331868   0.98819457   2.64580406 
C    0.85071462   0.22365189   2.42893045 
H   -0.91518433   0.60795029   3.56203472 
H   -0.18632537   2.02351467   2.85764642 
C    1.59393248   0.65301134   1.19235776 
H    0.66979775  -0.85168290   2.39785691 
H    1.48088551   0.39629578   3.30775851 
C    1.23763444   0.11429201  -0.05369011 
C    1.95841839   0.54433848  -1.17151582 
C    2.93428262   1.53099918  -1.08048822 
C    2.60391818   1.60861841   1.28297810 
C    3.26192212   2.07174379   0.15129747 
H    1.77747998   0.09444082  -2.13940499 
H    3.46438708   1.84177449  -1.97181816 
H    2.91549555   1.96230245   2.26182579 
H    4.02176181   2.83951030   0.23077613 
Pd  -0.16670354  -1.34338086  -0.06635072 
Br  -1.67272691  -3.44716479   0.09035278 
P    1.55521538  -2.95641625  -0.44336616 
H    1.87072211  -3.73123281   0.69215291 
C   -0.17643097  -1.94049962  -3.62303175 
O    0.89999229  -1.78832899  -4.14239949 
O   -0.70973474  -3.10822743  -3.16923106 
O   -1.00285805  -0.91125931  -3.40463435 
H    2.87306669  -2.58716218  -0.76054317 
H    1.42353115  -4.03028741  -1.34060475 
H   -0.53688653  -0.06815507  -3.52465077 
*
