! EnGrad PBEh-3c
%output 
xyzfile=True 
end 
%scf 
maxiter 250 
end
%output
Print[P_Hirshfeld] = 1
end
% maxcore
4000
*xyz -1 1
C   -1.59605392   0.05647565   0.48764987 
C   -1.52213190   0.97655763   1.55581402 
C   -2.79797287   0.12015070  -0.24544774 
C   -3.77292760   1.10648472  -0.07230427 
C   -3.62218956   2.06765186   0.91781920 
C   -2.51535067   1.96208972   1.73968016 
H   -1.30423848  -3.08564098  -2.49107283 
H   -3.00972635  -0.61917421  -1.01173441 
H   -2.43157628   2.66795194   2.57776459 
H   -4.65989639   1.13979793  -0.71350794 
H   -4.35487575   2.85349054   1.07052055 
C   -0.45384085   0.99355362   2.63442687 
C    0.85035249   0.22858116   2.42369143 
H   -0.91205199   0.61754091   3.56040039 
H   -0.18243755   2.04197887   2.84572694 
C    1.59895624   0.64973945   1.18517141 
H    0.66332375  -0.85023493   2.39219808 
H    1.47702894   0.39971925   3.30163868 
C    1.22706049   0.11714123  -0.05790297 
C    1.96535411   0.53893252  -1.17411602 
C    2.94731289   1.52345753  -1.08293553 
C    2.60680027   1.60678022   1.28011924 
C    3.27143289   2.06524648   0.15134731 
H    1.78824975   0.08650674  -2.14624933 
H    3.48178048   1.83184138  -1.97154365 
H    2.91592110   1.96234783   2.25914991 
H    4.03308210   2.83427282   0.23162213 
Pd  -0.19635232  -1.32992019  -0.04207788 
Br  -1.67188187  -3.43987786   0.07627896 
P    1.54498937  -2.95225374  -0.43750673 
H    1.85690797  -3.72718619   0.70036044 
C   -0.19961093  -1.94899045  -3.59583339 
O    0.86471412  -1.82393897  -4.11633573 
O   -0.66853476  -3.07940174  -3.19949210 
O   -1.00277797  -0.90213985  -3.40337414 
H    2.87900815  -2.59314110  -0.75028096 
H    1.42117246  -4.03012187  -1.33635490 
H   -0.52351174  -0.06391630  -3.53973866 
*
