! EnGrad PBEh-3c
%output 
xyzfile=True 
end 
%scf 
maxiter 250 
end
%output
Print[P_Hirshfeld] = 1
end
% maxcore
4000
*xyz -1 1
C   -1.60244879   0.07736612   0.48216199 
C   -1.51571791   0.97967921   1.54943193 
C   -2.79596237   0.11391773  -0.24658209 
C   -3.78112118   1.08152093  -0.05448208 
C   -3.63432705   2.04943412   0.93118541 
C   -2.51674128   1.94902777   1.74076701 
H   -1.29329937  -3.02039782  -2.49789957 
H   -3.01199223  -0.62613225  -1.00967416 
H   -2.42173797   2.67127869   2.56677891 
H   -4.67796826   1.10881605  -0.68362282 
H   -4.36979572   2.83965996   1.08452398 
C   -0.45177381   0.99991790   2.62123272 
C    0.85121480   0.23320984   2.41619767 
H   -0.90782622   0.63008135   3.55693068 
H   -0.17940268   2.05863944   2.83103210 
C    1.60003355   0.65014518   1.17789917 
H    0.65566653  -0.84668563   2.38716077 
H    1.47360318   0.40361052   3.29626022 
C    1.21639070   0.11900117  -0.06092194 
C    1.96841646   0.53249968  -1.17598032 
C    2.96108791   1.51151033  -1.08431286 
C    2.61251186   1.60211311   1.27670432 
C    3.28122761   2.05880687   0.15065864 
H    1.79981401   0.07849261  -2.15312580 
H    3.50127636   1.82097733  -1.97184127 
H    2.91495725   1.96325341   2.25598636 
H    4.04552739   2.82701329   0.23276180 
Pd  -0.21198791  -1.31841687  -0.02297697 
Br  -1.67353910  -3.43184271   0.06226582 
P    1.53153837  -2.94608087  -0.43029529 
H    1.84100167  -3.72194344   0.70861987 
C   -0.20335971  -1.92308325  -3.57431958 
O    0.83915461  -1.86315320  -4.09697381 
O   -0.62937472  -3.07369483  -3.23698282 
O   -1.01250838  -0.88915300  -3.39861765 
H    2.88266936  -2.59998697  -0.73842333 
H    1.41893058  -4.02855738  -1.33052187 
H   -0.50942011  -0.06830723  -3.55574854 
*
