! EnGrad PBEh-3c
%output 
xyzfile=True 
end 
%scf 
maxiter 250 
end
%output
Print[P_Hirshfeld] = 1
end
% maxcore
4000
*xyz -1 1
C   -1.60422765   0.08613398   0.47933837 
C   -1.51488250   0.98709358   1.54593450 
C   -2.80242101   0.11117008  -0.24868824 
C   -3.79295719   1.06470460  -0.04159712 
C   -3.64283909   2.03361231   0.94263296 
C   -2.51979364   1.94536943   1.74412776 
H   -1.27460203  -2.97974540  -2.51757354 
H   -3.01368707  -0.63288482  -1.00629131 
H   -2.41463809   2.67135281   2.55610077 
H   -4.69132030   1.08240294  -0.65767508 
H   -4.38088092   2.82554817   1.09636841 
C   -0.44667524   1.00981192   2.61544372 
C    0.85107127   0.23532075   2.40919272 
H   -0.90344169   0.64233264   3.55102519 
H   -0.17809376   2.06639505   2.81684162 
C    1.59936247   0.65180650   1.17362649 
H    0.64999651  -0.84170011   2.38320835 
H    1.47150157   0.40694829   3.29237418 
C    1.21227864   0.12152628  -0.06497040 
C    1.97062059   0.52723618  -1.17862519 
C    2.97100929   1.50050311  -1.08418874 
C    2.61784456   1.59812603   1.27357535 
C    3.28985971   2.05356132   0.14856069 
H    1.80965174   0.07256616  -2.15654186 
H    3.51714599   1.81108503  -1.97168727 
H    2.91431604   1.96340603   2.25326754 
H    4.05522206   2.82001595   0.23354197 
Pd  -0.21726874  -1.31100062  -0.01446814 
Br  -1.67611728  -3.42614264   0.05160913 
P    1.52510538  -2.94202880  -0.42510804 
H    1.82755786  -3.71773228   0.71534533 
C   -0.20845411  -1.89872647  -3.56775062 
O    0.86120708  -1.87230532  -4.10210603 
O   -0.64530660  -3.08640258  -3.22490880 
O   -1.02005411  -0.87199485  -3.39386566 
H    2.88111854  -2.60597514  -0.72714859 
H    1.41688740  -4.02627263  -1.32436973 
H   -0.49984554  -0.07256409  -3.56786329 
*
