! EnGrad PBEh-3c
%output 
xyzfile=True 
end 
%scf 
maxiter 250 
end
%output
Print[P_Hirshfeld] = 1
end
% maxcore
4000
*xyz -1 1
C   -1.61029911   0.09486579   0.47757558 
C   -1.51548313   1.00657085   1.54024316 
C   -2.81938359   0.10864938  -0.25152202 
C   -3.82132259   1.03607737  -0.01501352 
C   -3.66159629   2.00072011   0.96771563 
C   -2.52848053   1.94557912   1.75010429 
H   -1.28040172  -2.91062332  -2.51408058 
H   -3.01439282  -0.64949509  -0.99899012 
H   -2.39955676   2.67062432   2.53553998 
H   -4.72092300   1.02386706  -0.60443847 
H   -4.40026829   2.78749848   1.12151453 
C   -0.43382369   1.03275826   2.60576959 
C    0.85063507   0.24166183   2.39738075 
H   -0.89255902   0.67158221   3.53458938 
H   -0.17500479   2.07699894   2.78521143 
C    1.59602131   0.65936979   1.16569847 
H    0.63829560  -0.82906139   2.37634891 
H    1.46850095   0.41358304   3.28455249 
C    1.21043706   0.12840462  -0.07337577 
C    1.97423934   0.51798663  -1.18479522 
C    2.99012332   1.47561745  -1.08431605 
C    2.62929352   1.58905509   1.26685077 
C    3.30696475   2.03980226   0.14240573 
H    1.82827615   0.06126865  -2.16028033 
H    3.54753660   1.78683160  -1.96878399 
H    2.91148124   1.96400945   2.24701237 
H    4.07526516   2.80209948   0.23448161 
Pd  -0.21011009  -1.30104263  -0.01226679 
Br  -1.68624248  -3.41370007   0.03101742 
P    1.51655293  -2.93436239  -0.41487406 
H    1.79783860  -3.70793892   0.72898731 
C   -0.18500748  -1.89902032  -3.58384891 
O    0.90177798  -1.85676463  -4.11006851 
O   -0.66988596  -3.07576971  -3.21986493 
O   -1.02251279  -0.84530658  -3.38453351 
H    2.86924449  -2.61830753  -0.70148755 
H    1.41128813  -4.01799915  -1.30912455 
H   -0.48306113  -0.07448930  -3.59113845 
*
