! EnGrad PBEh-3c
%output 
xyzfile=True 
end 
%scf 
maxiter 250 
end
%output
Print[P_Hirshfeld] = 1
end
% maxcore
4000
*xyz -1 1
C   -1.61963893   0.09698611   0.48023179 
C   -1.51535986   1.01613274   1.53505240 
C   -2.82748913   0.10561142  -0.24764765 
C   -3.83818387   1.01923247   0.00389517 
C   -3.67701644   1.98138560   0.98496315 
C   -2.53344989   1.94649381   1.74904697 
H   -1.31959013  -2.87689399  -2.47660901 
H   -3.01429712  -0.66171741  -0.99253688 
H   -2.39060178   2.67515280   2.52848687 
H   -4.74751575   0.98310504  -0.57163183 
H   -4.41344928   2.75722711   1.14015170 
C   -0.42877428   1.04390019   2.59394641 
C    0.85051905   0.25057442   2.39282615 
H   -0.88500007   0.69420611   3.52357334 
H   -0.16943237   2.08718845   2.76384988 
C    1.59448567   0.66672843   1.15995768 
H    0.63015611  -0.81973485   2.37259238 
H    1.46808388   0.41750411   3.27907860 
C    1.21404131   0.13288085  -0.07754763 
C    1.97876308   0.51417479  -1.18854832 
C    3.00287202   1.45973811  -1.08622854 
C    2.63603232   1.58381172   1.26245614 
C    3.31752106   2.02721600   0.13864939 
H    1.83834768   0.05364132  -2.16148266 
H    3.56533243   1.76675849  -1.96490484 
H    2.90909041   1.96442838   2.24224980 
H    4.08892313   2.78688050   0.23381987 
Pd  -0.19268820  -1.29940459  -0.02497165 
Br  -1.69642048  -3.40496039   0.01845918 
P    1.51087952  -2.92948502  -0.40682751 
H    1.77672100  -3.70118002   0.73869575 
C   -0.17007974  -1.90720833  -3.60177676 
O    0.92841057  -1.82653140  -4.11771219 
O   -0.67246681  -3.04629144  -3.23760480 
O   -0.99585507  -0.85200484  -3.38720031 
H    2.85837187  -2.62516124  -0.68306871 
H    1.40637924  -4.01093369  -1.29780161 
H   -0.47430675  -0.06935657  -3.60492372 
*
