38
Coordinates from ORCA-job reaction-1-ieip_optts_Compound_2_IRC_F E -988.532279931381
  Pd      0.551168     -0.003016     -0.194068
  O       1.927718      1.327112      0.389547
  C       1.425783      2.430631      0.783814
  O       0.229532      2.595439      1.069176
  C       2.376858      3.593270      0.872955
  H       2.020080      4.334085      1.583836
  H       2.432369      4.063507     -0.110256
  H       3.380944      3.270118      1.138965
  N      -1.015186     -1.190491     -0.876850
  C      -0.773523     -2.604573     -0.552192
  H       0.135232     -2.935381     -1.049763
  H      -1.609854     -3.224520     -0.893443
  H      -0.651709     -2.740304      0.520006
  C      -1.243813     -1.057834     -2.324004
  H      -1.322590     -0.008466     -2.597963
  H      -2.163789     -1.580175     -2.606191
  H      -0.411399     -1.492161     -2.869266
  C      -1.842336     -0.557005      1.304280
  C      -2.526520     -1.246953      2.289433
  C      -2.056854     -1.237603      3.597672
  C      -0.880945     -0.573874      3.909726
  C      -0.196147      0.113709      2.919787
  C      -0.676439      0.163869      1.611071
  H      -0.504820     -0.584581      4.923853
  H       0.704503      0.657978      3.173092
  H      -3.418442     -1.808963      2.040198
  H      -2.601880     -1.766972      4.368289
  H      -0.399622      1.209673      1.144558
  C      -2.197914     -0.672492     -0.143248
  H      -2.440315      0.307822     -0.562149
  H      -3.059178     -1.329822     -0.310995
  O       1.696236     -0.448606     -1.759180
  C       1.761034      0.496419     -2.648149
  O       1.048133      1.480971     -2.672514
  C       2.847702      0.267797     -3.680704
  H       2.710333      0.923132     -4.537251
  H       2.876945     -0.769098     -4.013532
  H       3.818599      0.484848     -3.231929
38
Coordinates from ORCA-job reaction-1-ieip_optts_Compound_2_IRC_F E -988.532733196906
  Pd      0.555538     -0.000737     -0.197148
  O       1.927131      1.326214      0.388925
  C       1.426753      2.431659      0.783394
  O       0.230659      2.602637      1.067588
  C       2.378108      3.593032      0.872807
  H       2.020306      4.333998      1.583611
  H       2.432479      4.063550     -0.110349
  H       3.381466      3.270153      1.138963
  N      -1.015222     -1.190797     -0.877201
  C      -0.773622     -2.604694     -0.552222
  H       0.135234     -2.935377     -1.049761
  H      -1.609851     -3.224645     -0.893419
  H      -0.651663     -2.740329      0.520000
  C      -1.243959     -1.057938     -2.324061
  H      -1.322616     -0.008481     -2.597975
  H      -2.163829     -1.580217     -2.606284
  H      -0.411421     -1.492187     -2.869276
  C      -1.844329     -0.559159      1.304270
  C      -2.526382     -1.248252      2.289305
  C      -2.056724     -1.237607      3.597457
  C      -0.880077     -0.575037      3.910274
  C      -0.196206      0.113271      2.922487
  C      -0.681925      0.160201      1.617543
  H      -0.504777     -0.584672      4.924030
  H       0.704286      0.658726      3.172894
  H      -3.418421     -1.809107      2.040208
  H      -2.601907     -1.766764      4.368236
  H      -0.400740      1.208912      1.140854
  C      -2.197651     -0.672185     -0.143608
  H      -2.440312      0.307952     -0.562228
  H      -3.059190     -1.329705     -0.310941
  O       1.696031     -0.448537     -1.758733
  C       1.761028      0.496606     -2.648060
  O       1.047756      1.480919     -2.672730
  C       2.847590      0.267689     -3.680511
  H       2.710246      0.923080     -4.537205
  H       2.876920     -0.769128     -4.013535
  H       3.818546      0.484879     -3.231929
38
Coordinates from ORCA-job reaction-1-ieip_optts_Compound_2_IRC_F E -988.532962053875
  Pd      0.557705      0.000915     -0.198866
  O       1.926944      1.325868      0.388464
  C       1.426594      2.433324      0.783203
  O       0.232394      2.608033      1.065731
  C       2.379416      3.592965      0.872655
  H       2.020612      4.333834      1.583363
  H       2.432700      4.063606     -0.110448
  H       3.382252      3.270203      1.138978
  N      -1.015027     -1.190878     -0.877433
  C      -0.773645     -2.604748     -0.552269
  H       0.135226     -2.935399     -1.049759
  H      -1.609862     -3.224771     -0.893395
  H      -0.651621     -2.740327      0.519979
  C      -1.244056     -1.058018     -2.324166
  H      -1.322658     -0.008534     -2.597988
  H      -2.163905     -1.580280     -2.606407
  H      -0.411466     -1.492220     -2.869315
  C      -1.845198     -0.560449      1.304459
  C      -2.526533     -1.249648      2.289511
  C      -2.056673     -1.237941      3.597569
  C      -0.879733     -0.576306      3.911147
  C      -0.196427      0.113127      2.924087
  C      -0.685547      0.159081      1.621311
  H      -0.504701     -0.584946      4.924653
  H       0.704027      0.659390      3.172804
  H      -3.418784     -1.809594      2.040310
  H      -2.601966     -1.766588      4.368219
  H      -0.402233      1.206652      1.138249
  C      -2.197536     -0.672146     -0.143898
  H      -2.440262      0.308102     -0.562256
  H      -3.059161     -1.329564     -0.311032
  O       1.696235     -0.448435     -1.758593
  C       1.761041      0.496825     -2.648188
  O       1.047470      1.480810     -2.672898
  C       2.847516      0.267625     -3.680409
  H       2.710162      0.923010     -4.537132
  H       2.876886     -0.769154     -4.013515
  H       3.818487      0.484901     -3.231919
38
Coordinates from ORCA-job reaction-1-ieip_optts_Compound_2_IRC_F E -988.533271010400
  Pd      0.559929      0.003650     -0.200983
  O       1.926660      1.326203      0.387887
  C       1.426328      2.436603      0.782587
  O       0.235496      2.617074      1.061895
  C       2.382052      3.593167      0.872371
  H       2.021432      4.333491      1.582849
  H       2.433371      4.063794     -0.110687
  H       3.384194      3.270306      1.139020
  N      -1.014536     -1.190860     -0.877798
  C      -0.773621     -2.604785     -0.552371
  H       0.135224     -2.935481     -1.049767
  H      -1.609866     -3.224983     -0.893341
  H      -0.651535     -2.740291      0.519914
  C      -1.244210     -1.058175     -2.324382
  H      -1.322759     -0.008654     -2.598042
  H      -2.164063     -1.580417     -2.606663
  H      -0.411562     -1.492301     -2.869449
  C      -1.846484     -0.562476      1.304948
  C      -2.527005     -1.252427      2.290103
  C      -2.056571     -1.238908      3.597960
  C      -0.879343     -0.578674      3.912940
  C      -0.197119      0.113056      2.926694
  C      -0.690635      0.159473      1.626082
  H      -0.504567     -0.585748      4.926221
  H       0.703332      0.660611      3.172723
  H      -3.419702     -1.810862      2.040657
  H      -2.602275     -1.766439      4.368440
  H      -0.405760      1.200482      1.134145
  C      -2.197311     -0.672191     -0.144226
  H      -2.440095      0.308367     -0.562220
  H      -3.059077     -1.329297     -0.311364
  O       1.696987     -0.448130     -1.758542
  C       1.761061      0.497248     -2.648548
  O       1.046997      1.480524     -2.673228
  C       2.847428      0.267555     -3.680333
  H       2.710006      0.922873     -4.537012
  H       2.876804     -0.769211     -4.013451
  H       3.818371      0.484936     -3.231886
38
Coordinates from ORCA-job reaction-1-ieip_optts_Compound_2_IRC_F E -988.533585726039
  Pd      0.560320      0.006401     -0.202112
  O       1.926152      1.327974      0.387646
  C       1.427256      2.440314      0.781121
  O       0.237670      2.625950      1.057071
  C       2.385404      3.593926      0.872014
  H       2.022948      4.333259      1.582279
  H       2.434783      4.064296     -0.111099
  H       3.387196      3.270487      1.139040
  N      -1.014050     -1.190713     -0.878051
  C      -0.773476     -2.604727     -0.552496
  H       0.135280     -2.935649     -1.049810
  H      -1.609802     -3.225106     -0.893258
  H      -0.651407     -2.740189      0.519796
  C      -1.244333     -1.058334     -2.324624
  H      -1.322919     -0.008805     -2.598186
  H      -2.164229     -1.580592     -2.606950
  H      -0.411682     -1.492423     -2.869718
  C      -1.847611     -0.564063      1.305768
  C      -2.527288     -1.255415      2.290749
  C      -2.056550     -1.240647      3.598685
  C      -0.878998     -0.580952      3.914663
  C      -0.198485      0.113429      2.928984
  C      -0.694693      0.162061      1.629288
  H      -0.504506     -0.587231      4.928438
  H       0.702065      0.661991      3.172890
  H      -3.420938     -1.812899      2.041349
  H      -2.603034     -1.766709      4.369259
  H      -0.411051      1.190945      1.130346
  C      -2.197008     -0.672282     -0.144201
  H      -2.439750      0.308560     -0.561947
  H      -3.058945     -1.329037     -0.312014
  O       1.698143     -0.447534     -1.758441
  C       1.761154      0.497618     -2.649003
  O       1.046447      1.480168     -2.673709
  C       2.847434      0.267546     -3.680454
  H       2.709850      0.922756     -4.537005
  H       2.876688     -0.769283     -4.013345
  H       3.818243      0.484978     -3.231831
38
Coordinates from ORCA-job reaction-1-ieip_optts_Compound_2_IRC_F E -988.533885412678
  Pd      0.560788      0.009255     -0.203260
  O       1.925718      1.329258      0.387170
  C       1.428012      2.444406      0.779578
  O       0.239239      2.634124      1.051805
  C       2.389087      3.594866      0.871531
  H       2.025059      4.333460      1.581870
  H       2.436934      4.065225     -0.111613
  H       3.390505      3.270852      1.138927
  N      -1.013805     -1.190632     -0.878142
  C      -0.773258     -2.604631     -0.552599
  H       0.135404     -2.935825     -1.049884
  H      -1.609649     -3.225068     -0.893161
  H      -0.651228     -2.740053      0.519683
  C      -1.244440     -1.058431     -2.324797
  H      -1.323103     -0.008943     -2.598418
  H      -2.164323     -1.580758     -2.607158
  H      -0.411813     -1.492542     -2.870019
  C      -1.848660     -0.565157      1.306615
  C      -2.527291     -1.258110      2.291311
  C      -2.056524     -1.242609      3.599489
  C      -0.878781     -0.582851      3.916034
  C      -0.200037      0.114302      2.930844
  C      -0.699360      0.162749      1.633214
  H      -0.504636     -0.589082      4.930183
  H       0.700379      0.663475      3.173354
  H      -3.421662     -1.815076      2.042256
  H      -2.603938     -1.767345      4.370367
  H      -0.416830      1.181753      1.126338
  C      -2.196836     -0.672350     -0.144038
  H      -2.439301      0.308675     -0.561452
  H      -3.058748     -1.328799     -0.312739
  O       1.699010     -0.446716     -1.757729
  C       1.761273      0.497940     -2.649291
  O       1.045849      1.479799     -2.674363
  C       2.847472      0.267545     -3.680617
  H       2.709740      0.922710     -4.537194
  H       2.876580     -0.769356     -4.013254
  H       3.818156      0.485032     -3.231800
38
Coordinates from ORCA-job reaction-1-ieip_optts_Compound_2_IRC_F E -988.534165819199
  Pd      0.560764      0.012046     -0.203977
  O       1.925221      1.331126      0.386835
  C       1.428619      2.447898      0.777690
  O       0.240728      2.641485      1.046147
  C       2.392606      3.595947      0.871003
  H       2.027842      4.333971      1.581454
  H       2.439775      4.066526     -0.112088
  H       3.393942      3.271300      1.138671
  N      -1.013453     -1.190411     -0.878189
  C      -0.772985     -2.604478     -0.552660
  H       0.135562     -2.935939     -1.049970
  H      -1.609464     -3.224962     -0.893063
  H      -0.650977     -2.739900      0.519610
  C      -1.244557     -1.058510     -2.324882
  H      -1.323307     -0.009069     -2.598688
  H      -2.164388     -1.580924     -2.607307
  H      -0.411984     -1.492628     -2.870252
  C      -1.850264     -0.566833      1.307495
  C      -2.527692     -1.260957      2.292317
  C      -2.056505     -1.244621      3.600328
  C      -0.879065     -0.584704      3.917553
  C      -0.201831      0.115035      2.933058
  C      -0.703099      0.163939      1.635967
  H      -0.504840     -0.591144      4.931578
  H       0.698439      0.665222      3.173963
  H      -3.422020     -1.817417      2.043288
  H      -2.604667     -1.768200      4.371391
  H      -0.422740      1.172732      1.122400
  C      -2.196740     -0.672513     -0.143831
  H      -2.438837      0.308880     -0.560845
  H      -3.058602     -1.328583     -0.313461
  O       1.699909     -0.445654     -1.756879
  C       1.761355      0.498249     -2.649455
  O       1.045229      1.479412     -2.675177
  C       2.847458      0.267559     -3.680720
  H       2.709666      0.922617     -4.537381
  H       2.876494     -0.769424     -4.013184
  H       3.818101      0.485083     -3.231824
38
Coordinates from ORCA-job reaction-1-ieip_optts_Compound_2_IRC_F E -988.534434714306
  Pd      0.560812      0.014877     -0.204670
  O       1.924832      1.332733      0.386354
  C       1.429412      2.451608      0.775603
  O       0.241754      2.648595      1.040179
  C       2.396323      3.597129      0.870372
  H       2.031136      4.334740      1.581043
  H       2.443161      4.068111     -0.112494
  H       3.397318      3.271775      1.138265
  N      -1.013242     -1.190206     -0.878133
  C      -0.772655     -2.604271     -0.552695
  H       0.135763     -2.935991     -1.050061
  H      -1.609220     -3.224760     -0.892953
  H      -0.650655     -2.739726      0.519558
  C      -1.244654     -1.058531     -2.324923
  H      -1.323533     -0.009181     -2.598982
  H      -2.164433     -1.581095     -2.607368
  H      -0.412160     -1.492692     -2.870435
  C      -1.851639     -0.568485      1.308538
  C      -2.527808     -1.263552      2.293101
  C      -2.056743     -1.246798      3.601295
  C      -0.879284     -0.586213      3.918630
  C      -0.203897      0.115868      2.934904
  C      -0.707297      0.164022      1.639239
  H      -0.505067     -0.593401      4.933052
  H       0.696094      0.667105      3.174765
  H      -3.422543     -1.820223      2.044421
  H      -2.605383     -1.769425      4.372585
  H      -0.428611      1.164479      1.118186
  C      -2.196681     -0.672669     -0.143519
  H      -2.438361      0.309030     -0.560042
  H      -3.058596     -1.328473     -0.314296
  O       1.700764     -0.444445     -1.755754
  C       1.761450      0.498576     -2.649581
  O       1.044489      1.479084     -2.676130
  C       2.847473      0.267546     -3.680806
  H       2.709596      0.922487     -4.537551
  H       2.876411     -0.769477     -4.013100
  H       3.818056      0.485128     -3.231886
38
Coordinates from ORCA-job reaction-1-ieip_optts_Compound_2_IRC_F E -988.534688073093
  Pd      0.560623      0.017627     -0.205128
  O       1.924499      1.334576      0.385904
  C       1.430069      2.455180      0.773315
  O       0.242856      2.655219      1.033890
  C       2.399851      3.598316      0.869655
  H       2.034873      4.335746      1.580637
  H       2.447030      4.069993     -0.112907
  H       3.400752      3.272136      1.137773
  N      -1.012969     -1.189906     -0.878037
  C      -0.772288     -2.604017     -0.552695
  H       0.136001     -2.935947     -1.050155
  H      -1.608936     -3.224506     -0.892828
  H      -0.650257     -2.739533      0.519536
  C      -1.244785     -1.058532     -2.324881
  H      -1.323779     -0.009266     -2.599271
  H      -2.164459     -1.581262     -2.607351
  H      -0.412335     -1.492725     -2.870534
  C      -1.853285     -0.570491      1.309454
  C      -2.528551     -1.266604      2.294230
  C      -2.056934     -1.248941      3.602265
  C      -0.879958     -0.587903      3.920193
  C      -0.206009      0.116702      2.936873
  C      -0.710878      0.164596      1.641568
  H      -0.505394     -0.595717      4.934170
  H       0.693460      0.669181      3.175645
  H      -3.422821     -1.823175      2.045668
  H      -2.605930     -1.770902      4.373725
  H      -0.434306      1.156711      1.114092
  C      -2.196808     -0.673054     -0.143229
  H      -2.437911      0.309200     -0.559059
  H      -3.058591     -1.328338     -0.315143
  O       1.701670     -0.443044     -1.754568
  C       1.761503      0.498938     -2.649649
  O       1.043708      1.478723     -2.677211
  C       2.847441      0.267537     -3.680812
  H       2.709523      0.922323     -4.537699
  H       2.876329     -0.769556     -4.013002
  H       3.818056      0.485166     -3.231965
38
Coordinates from ORCA-job reaction-1-ieip_optts_Compound_2_IRC_F E -988.534929480621
  Pd      0.560495      0.020342     -0.205564
  O       1.924286      1.336259      0.385355
  C       1.430773      2.458823      0.770850
  O       0.243719      2.661600      1.027386
  C       2.403608      3.599645      0.868860
  H       2.038953      4.336896      1.580202
  H       2.451277      4.072075     -0.113257
  H       3.403995      3.272386      1.137155
  N      -1.012823     -1.189636     -0.877858
  C      -0.771866     -2.603719     -0.552669
  H       0.136288     -2.935813     -1.050254
  H      -1.608594     -3.224190     -0.892684
  H      -0.649782     -2.739316      0.519530
  C      -1.244881     -1.058476     -2.324810
  H      -1.324048     -0.009334     -2.599541
  H      -2.164480     -1.581434     -2.607244
  H      -0.412508     -1.492720     -2.870552
  C      -1.854609     -0.572361      1.310491
  C      -2.528899     -1.269371      2.295172
  C      -2.057346     -1.251244      3.603266
  C      -0.880639     -0.589286      3.921135
  C      -0.208369      0.117636      2.938399
  C      -0.714957      0.164180      1.644400
  H      -0.505723     -0.598099      4.935472
  H       0.690464      0.671348      3.176667
  H      -3.423365     -1.826589      2.046971
  H      -2.606450     -1.772756      4.375020
  H      -0.439711      1.149952      1.109935
  C      -2.196894     -0.673400     -0.142779
  H      -2.437510      0.309286     -0.557871
  H      -3.058802     -1.328385     -0.316136
  O       1.702560     -0.441565     -1.753201
  C       1.761542      0.499369     -2.649718
  O       1.042829      1.478382     -2.678405
  C       2.847458      0.267503     -3.680820
  H       2.709440      0.922120     -4.537808
  H       2.876233     -0.769619     -4.012851
  H       3.818056      0.485189     -3.232061
38
Coordinates from ORCA-job reaction-1-ieip_optts_Compound_2_IRC_F E -988.535157582341
  Pd      0.560212      0.022973     -0.205824
  O       1.924113      1.338127      0.384824
  C       1.431544      2.462360      0.768195
  O       0.244592      2.667631      1.020701
  C       2.407113      3.600889      0.867965
  H       2.043303      4.338199      1.579775
  H       2.455858      4.074381     -0.113656
  H       3.407274      3.272418      1.136494
  N      -1.012624     -1.189281     -0.877633
  C      -0.771405     -2.603386     -0.552619
  H       0.136621     -2.935574     -1.050355
  H      -1.608207     -3.223854     -0.892519
  H      -0.649228     -2.739079      0.519553
  C      -1.245020     -1.058406     -2.324645
  H      -1.324341     -0.009368     -2.599773
  H      -2.164488     -1.581598     -2.607066
  H      -0.412662     -1.492679     -2.870484
  C      -1.856302     -0.574583      1.311475
  C      -2.529736     -1.272519      2.296291
  C      -2.057738     -1.253589      3.604308
  C      -0.881624     -0.590796      3.922503
  C      -0.210864      0.118481      2.940124
  C      -0.718372      0.164550      1.646299
  H      -0.506194     -0.600431      4.936386
  H       0.687276      0.673699      3.177720
  H      -3.423679     -1.830098      2.048341
  H      -2.606767     -1.774823      4.376190
  H      -0.444876      1.143601      1.106136
  C      -2.197228     -0.674005     -0.142454
  H      -2.437177      0.309361     -0.556512
  H      -3.058946     -1.328389     -0.317118
  O       1.703488     -0.439934     -1.751843
  C       1.761595      0.499742     -2.649741
  O       1.041865      1.478059     -2.679703
  C       2.847418      0.267487     -3.680740
  H       2.709352      0.921897     -4.537913
  H       2.876123     -0.769720     -4.012658
  H       3.818103      0.485203     -3.232149
38
Coordinates from ORCA-job reaction-1-ieip_optts_Compound_2_IRC_F E -988.535376469570
  Pd      0.559988      0.025589     -0.206073
  O       1.924035      1.339913      0.384214
  C       1.432193      2.465851      0.765392
  O       0.245452      2.673539      1.013835
  C       2.410874      3.602327      0.867004
  H       2.047886      4.339526      1.579280
  H       2.460708      4.076804     -0.114002
  H       3.410365      3.272285      1.135732
  N      -1.012537     -1.188960     -0.877369
  C      -0.770903     -2.603018     -0.552535
  H       0.137014     -2.935245     -1.050466
  H      -1.607751     -3.223485     -0.892329
  H      -0.648597     -2.738819      0.519588
  C      -1.245137     -1.058294     -2.324452
  H      -1.324660     -0.009382     -2.599959
  H      -2.164486     -1.581761     -2.606811
  H      -0.412809     -1.492596     -2.870340
  C      -1.857814     -0.576676      1.312428
  C      -2.530326     -1.275523      2.297225
  C      -2.058248     -1.256052      3.605258
  C      -0.882569     -0.592055      3.923402
  C      -0.213473      0.119472      2.941580
  C      -0.722215      0.164238      1.648606
  H      -0.506701     -0.602747      4.937414
  H       0.683709      0.676088      3.178856
  H      -3.424098     -1.833931      2.049736
  H      -2.607087     -1.777275      4.377516
  H      -0.449794      1.138080      1.102432
  C      -2.197404     -0.674499     -0.141867
  H      -2.436941      0.309361     -0.555005
  H      -3.059337     -1.328632     -0.318234
  O       1.704411     -0.438285     -1.750356
  C       1.761515      0.500319     -2.649774
  O       1.040899      1.477618     -2.681094
  C       2.847448      0.267447     -3.680688
  H       2.709255      0.921635     -4.537978
  H       2.875990     -0.769802     -4.012395
  H       3.818137      0.485201     -3.232240
38
Coordinates from ORCA-job reaction-1-ieip_optts_Compound_2_IRC_F E -988.535583960132
  Pd      0.559638      0.028105     -0.206198
  O       1.923995      1.341778      0.383589
  C       1.432909      2.469407      0.762471
  O       0.246388      2.679168      1.006866
  C       2.414363      3.603532      0.865933
  H       2.052609      4.340949      1.578811
  H       2.465795      4.079389     -0.114437
  H       3.413487      3.271914      1.134948
  N      -1.012389     -1.188553     -0.877020
  C      -0.770341     -2.602621     -0.552438
  H       0.137448     -2.934807     -1.050574
  H      -1.607244     -3.223125     -0.892114
  H      -0.647885     -2.738539      0.519651
  C      -1.245280     -1.058158     -2.324176
  H      -1.325008     -0.009361     -2.600086
  H      -2.164487     -1.581921     -2.606500
  H      -0.412940     -1.492464     -2.870111
  C      -1.859494     -0.578915      1.313428
  C      -2.531158     -1.278770      2.298340
  C      -2.058735     -1.258604      3.606307
  C      -0.883876     -0.593491      3.924611
  C      -0.216293      0.120376      2.943073
  C      -0.725575      0.164619      1.650209
  H      -0.507334     -0.604947      4.938163
  H       0.680086      0.678697      3.180033
  H      -3.424381     -1.837891      2.051100
  H      -2.607146     -1.779872      4.378596
  H      -0.454520      1.132925      1.099194
  C      -2.197971     -0.675300     -0.141571
  H      -2.436800      0.309332     -0.553372
  H      -3.059551     -1.328783     -0.319295
  O       1.705353     -0.436520     -1.748913
  C       1.761453      0.500832     -2.649794
  O       1.039858      1.477171     -2.682558
  C       2.847400      0.267426     -3.680530
  H       2.709161      0.921362     -4.538058
  H       2.875839     -0.769928     -4.012081
  H       3.818218      0.485194     -3.232308
38
Coordinates from ORCA-job reaction-1-ieip_optts_Compound_2_IRC_F E -988.535782404049
  Pd      0.559386      0.030607     -0.206331
  O       1.924002      1.343520      0.382879
  C       1.433849      2.472758      0.759374
  O       0.246975      2.684764      0.999918
  C       2.418122      3.604995      0.864811
  H       2.057452      4.342280      1.578239
  H       2.471026      4.081974     -0.114792
  H       3.416366      3.271368      1.134075
  N      -1.012373     -1.188207     -0.876688
  C      -0.769765     -2.602190     -0.552302
  H       0.137952     -2.934281     -1.050694
  H      -1.606653     -3.222748     -0.891868
  H      -0.647095     -2.738242      0.519729
  C      -1.245422     -1.057986     -2.323877
  H      -1.325382     -0.009319     -2.600150
  H      -2.164459     -1.582067     -2.606119
  H      -0.413052     -1.492286     -2.869818
  C      -1.861058     -0.580990      1.314339
  C      -2.531780     -1.281866      2.299107
  C      -2.059285     -1.261214      3.607122
  C      -0.884955     -0.594577      3.925357
  C      -0.219111      0.121456      2.944413
  C      -0.729392      0.164326      1.652301
  H      -0.508019     -0.607065      4.939023
  H       0.676076      0.681263      3.181252
  H      -3.424641     -1.842048      2.052444
  H      -2.607275     -1.782890      4.379880
  H      -0.459004      1.128616      1.096118
  C      -2.198196     -0.675869     -0.140865
  H      -2.436805      0.309241     -0.551692
  H      -3.060083     -1.329257     -0.320479
  O       1.706252     -0.434787     -1.747376
  C       1.761386      0.501345     -2.649815
  O       1.038691      1.476790     -2.684090
  C       2.847447      0.267386     -3.680437
  H       2.709070      0.921041     -4.538090
  H       2.875661     -0.770023     -4.011686
  H       3.818259      0.485170     -3.232368
38
Coordinates from ORCA-job reaction-1-ieip_optts_Compound_2_IRC_F E -988.535970381738
  Pd      0.558964      0.032995     -0.206352
  O       1.923989      1.345418      0.382191
  C       1.434718      2.476180      0.756235
  O       0.247880      2.690081      0.992902
  C       2.421497      3.606042      0.863593
  H       2.062328      4.343686      1.577725
  H       2.476411      4.084677     -0.115309
  H       3.419343      3.270595      1.133207
  N      -1.012271     -1.187744     -0.876225
  C      -0.769104     -2.601741     -0.552155
  H       0.138487     -2.933651     -1.050802
  H      -1.606016     -3.222408     -0.891598
  H      -0.646228     -2.737924      0.519827
  C      -1.245557     -1.057792     -2.323502
  H      -1.325789     -0.009233     -2.600149
  H      -2.164462     -1.582223     -2.605710
  H      -0.413160     -1.492049     -2.869450
  C      -1.862732     -0.583138      1.315285
  C      -2.532543     -1.285178      2.300220
  C      -2.059793     -1.263952      3.608174
  C      -0.886558     -0.595988      3.926484
  C      -0.222164      0.122422      2.945769
  C      -0.732623      0.164983      1.653598
  H      -0.508819     -0.609025      4.939646
  H       0.672184      0.684113      3.182515
  H      -3.424807     -1.846325      2.053655
  H      -2.607036     -1.785915      4.380712
  H      -0.463398      1.124471      1.093603
  C      -2.198988     -0.676799     -0.140663
  H      -2.436902      0.309096     -0.549942
  H      -3.060283     -1.329541     -0.321521
  O       1.707163     -0.432976     -1.745938
  C       1.761165      0.502013     -2.649842
  O       1.037634      1.476161     -2.685658
  C       2.847370      0.267362     -3.680198
  H       2.708985      0.920727     -4.538164
  H       2.875476     -0.770185     -4.011255
  H       3.818360      0.485149     -3.232389
38
Coordinates from ORCA-job reaction-1-ieip_optts_Compound_2_IRC_F E -988.536147771174
  Pd      0.558695      0.035353     -0.206425
  O       1.924077      1.346982      0.381376
  C       1.435512      2.479328      0.753069
  O       0.248507      2.695329      0.986082
  C       2.425290      3.607558      0.862362
  H       2.067184      4.344846      1.577052
  H       2.481751      4.087196     -0.115646
  H       3.421945      3.269703      1.132253
  N      -1.012322     -1.187405     -0.875879
  C      -0.768482     -2.601257     -0.551977
  H       0.139094     -2.932952     -1.050923
  H      -1.605286     -3.222055     -0.891296
  H      -0.645300     -2.737598      0.519953
  C      -1.245740     -1.057570     -2.323126
  H      -1.326214     -0.009138     -2.600082
  H      -2.164394     -1.582341     -2.605238
  H      -0.413226     -1.491773     -2.869050
  C      -1.864318     -0.585065      1.316128
  C      -2.533129     -1.288260      2.300678
  C      -2.060279     -1.266582      3.608667
  C      -0.887565     -0.596811      3.927068
  C      -0.225031      0.123620      2.947055
  C      -0.736446      0.164656      1.655671
  H      -0.509669     -0.610864      4.940405
  H       0.667858      0.686747      3.183778
  H      -3.424789     -1.850605      2.054830
  H      -2.607061     -1.789451      4.381967
  H      -0.467488      1.121361      1.091178
  C      -2.199135     -0.677341     -0.139760
  H      -2.437181      0.308937     -0.548290
  H      -3.060944     -1.330271     -0.322691
  O       1.707970     -0.431266     -1.744415
  C       1.761173      0.502315     -2.649853
  O       1.036227      1.475958     -2.687255
  C       2.847460      0.267317     -3.680106
  H       2.708915      0.920349     -4.538159
  H       2.875264     -0.770280     -4.010740
  H       3.818370      0.485108     -3.232401
