! EnGrad PBEh-3c
%output 
xyzfile=True 
end 
%scf 
maxiter 250 
end
%output
Print[P_Hirshfeld] = 1
end
% maxcore
4000
*xyz -1 1
C   -2.07452952  -0.00753977   0.60799826 
C   -1.78131741   1.02525535   1.50317032 
C   -3.43320907  -0.28607026   0.40686700 
C   -4.45158079   0.58297989   0.77788677 
C   -4.12876946   1.70749917   1.51395794 
C   -2.79046848   1.97291125   1.73809316 
H   -2.43521542  -2.02524726  -2.26202769 
H   -3.77613839  -1.29497169   0.21258986 
H   -2.58481085   2.93088094   2.21070806 
H   -5.49314687   0.34905046   0.58446377 
H   -4.90590771   2.37879888   1.85886634 
C   -0.43049158   1.39035423   2.06055337 
C    0.76277811   0.44357112   2.03824915 
H   -0.57532646   1.69017203   3.11021906 
H   -0.15966696   2.34281805   1.58629081 
C    1.70399338   0.69118554   0.89845499 
H    0.39999777  -0.58599327   2.04979331 
H    1.32865284   0.52627418   2.97672586 
C    1.46183407   0.12170218  -0.35526282 
C    2.47067107   0.32258819  -1.30167960 
C    3.53297623   1.20674688  -1.13286453 
C    2.89521796   1.38113664   1.14359755 
C    3.66727345   1.84570764   0.08700061 
H    2.51050864  -0.27365405  -2.20563563 
H    4.25338131   1.38380105  -1.92336217 
H    3.10586991   1.76173180   2.13868171 
H    4.38877639   2.64417089   0.20765804 
Pd   0.06084709  -1.24197522  -0.55425708 
Br  -1.55247312  -3.68816254  -0.46022328 
P    1.43875049  -2.97938792  -0.10610513 
H    1.28480826  -3.65034306   1.12888293 
C    0.21702482  -1.51695742  -3.78478125 
O    1.32418780  -1.82940600  -4.14429171 
O   -0.62509379  -2.36683110  -3.28847166 
O   -0.33960859  -0.33119932  -4.05383995 
H    2.82897600  -2.78165220   0.05851751 
H    1.56257983  -4.10536743  -0.93883208 
H    0.33863708   0.26542168  -4.38757752 
*
