! EnGrad PBEh-3c
%output 
xyzfile=True 
end 
%scf 
maxiter 250 
end
%output
Print[P_Hirshfeld] = 1
end
% maxcore
4000
*xyz -1 1
C   -1.99462399  -0.08601050   0.65596537 
C   -1.75909457   1.07811727   1.40278990 
C   -3.36841727  -0.39138997   0.51020480 
C   -4.40737100   0.43253917   0.95980830 
C   -4.11911265   1.64505869   1.56517233 
C   -2.79258605   1.93091386   1.81001002 
H   -1.23578912  -2.17585010  -2.25110919 
H   -3.67863508  -1.31922799   0.04726064 
H   -2.54119713   2.82649062   2.37479104 
H   -5.44524469   0.16375305   0.77396012 
H   -4.89925671   2.35385106   1.81209519 
C   -0.39961747   1.50952103   1.88157572 
C    0.71158166   0.47112070   2.01852010 
H   -0.56952524   1.93754710   2.87431117 
H   -0.02056930   2.33877797   1.27105871 
C    1.71674593   0.60672807   0.92353364 
H    0.30091913  -0.53810273   2.04494277 
H    1.20910707   0.60547797   2.97773206 
C    1.47703350  -0.01531566  -0.29689197 
C    2.44303049   0.20406107  -1.30422583 
C    3.48971551   1.11039401  -1.12808669 
C    2.81052082   1.44055482   1.11933928 
C    3.67804098   1.73933151   0.08974349 
H    2.40660734  -0.29218105  -2.27209192 
H    4.18244991   1.32998597  -1.92644610 
H    2.94951596   1.88689547   2.09422497 
H    4.50479668   2.41537315   0.25607744 
Pd  -0.17059155  -1.30842470  -0.23158216 
Br  -1.92389779  -3.19802959  -0.72568921 
P    1.44746584  -2.91526097  -0.11972399 
H    1.14134646  -3.54807800   1.09383470 
C    0.08989319  -1.42010500  -3.75380011 
O    1.14731210  -1.82448234  -3.99223072 
O   -0.87213963  -2.16353459  -3.22855385 
O   -0.35828582  -0.18545690  -4.11019242 
H    2.81289552  -2.72207336   0.16822713 
H    1.58701862  -4.09517071  -0.86479419 
H    0.43033636   0.18214113  -4.52969805 
*
