! EnGrad PBEh-3c
%output 
xyzfile=True 
end 
%scf 
maxiter 250 
end
%output
Print[P_Hirshfeld] = 1
end
% maxcore
4000
*xyz -1 1
C   -1.99747634  -0.07909598   0.65110007 
C   -1.75850115   1.07926897   1.40990159 
C   -3.37100556  -0.38571193   0.50421459 
C   -4.40750293   0.45228104   0.93811068 
C   -4.12112937   1.66213542   1.55022586 
C   -2.79337347   1.94307408   1.79528503 
H   -1.29195590  -2.19944383  -2.27003877 
H   -3.67816584  -1.31385906   0.03155503 
H   -2.53742791   2.83297259   2.36566143 
H   -5.44242285   0.19255554   0.73758144 
H   -4.89753461   2.37122429   1.80150209 
C   -0.39898929   1.49441452   1.91046050 
C    0.71937232   0.46279876   2.02264449 
H   -0.58845875   1.87885934   2.91653834 
H   -0.02247979   2.35251790   1.33885656 
C    1.71586008   0.61494897   0.92001754 
H    0.31633945  -0.55069905   2.04419472 
H    1.22466808   0.59685580   2.97870920 
C    1.47964668  -0.01250275  -0.30028256 
C    2.44647925   0.21082896  -1.30737879 
C    3.48904167   1.12418099  -1.13229421 
C    2.81071053   1.44897983   1.12010210 
C    3.66879186   1.76559298   0.08532629 
H    2.41244055  -0.28397601  -2.27714962 
H    4.18688030   1.34831433  -1.92630631 
H    2.96750237   1.87256378   2.10603949 
H    4.49977784   2.44367564   0.25907017 
Pd  -0.17964296  -1.30781817  -0.23350564 
Br  -1.87919820  -3.22345703  -0.73336342 
P    1.46300316  -2.91909919  -0.12893826 
H    1.16280823  -3.55647885   1.08282748 
C    0.04884251  -1.41071024  -3.73212922 
O    1.14069716  -1.85291486  -4.00398500 
O   -0.85840180  -2.18367792  -3.20796309 
O   -0.36876466  -0.21006909  -4.09866017 
H    2.82901106  -2.73083912   0.14523986 
H    1.58004537  -4.09753229  -0.87742583 
H    0.41500043   0.17900297  -4.49405600 
*
