! EnGrad PBEh-3c
%output 
xyzfile=True 
end 
%scf 
maxiter 250 
end
%output
Print[P_Hirshfeld] = 1
end
% maxcore
4000
*xyz -1 1
C   -2.01655793  -0.03238501   0.61634796 
C   -1.78386343   1.05180488   1.44752580 
C   -3.43532148  -0.28945224   0.40201078 
C   -4.44591924   0.57462600   0.79447755 
C   -4.12111872   1.72335993   1.47624926 
C   -2.80159676   1.97600344   1.77128193 
H   -2.34611947  -2.07107671  -2.27784653 
H   -3.75800017  -1.29193277   0.16047394 
H   -2.56983943   2.92494362   2.22339869 
H   -5.48607844   0.34319134   0.57984339 
H   -4.89843503   2.38805684   1.84786452 
C   -0.42539724   1.42069954   2.08463146 
C    0.76393749   0.42977714   2.05290474 
H   -0.58730666   1.66820143   3.11921467 
H   -0.14811185   2.34442641   1.60918271 
C    1.70928259   0.66797738   0.91843912 
H    0.40284986  -0.58864753   2.05262859 
H    1.32916451   0.53423979   2.97665592 
C    1.48654556   0.12093491  -0.34701099 
C    2.46646891   0.30766211  -1.32595986 
C    3.51087313   1.21828786  -1.12497084 
C    2.86341783   1.43055086   1.13588421 
C    3.67828069   1.83162095   0.08579788 
H    2.49065542  -0.27061178  -2.20960590 
H    4.24255470   1.38384695  -1.92628872 
H    3.09957997   1.76454769   2.13972294 
H    4.39561885   2.63736339   0.21484137 
Pd  -0.01831074  -1.24126457  -0.51839618 
Br  -1.57266368  -3.65039471  -0.47363089 
P    1.47215563  -2.98431985  -0.11714038 
H    1.28512687  -3.64826669   1.11699700 
C    0.13622647  -1.57807581  -3.79115500 
O    1.36010978  -1.82294840  -4.14054785 
O   -0.65163369  -2.34864546  -3.26463654 
O   -0.34483025  -0.30514131  -4.03574060 
H    2.83145279  -2.77646888   0.04509431 
H    1.55223536  -4.10144045  -0.94686751 
H    0.33420742   0.25962871  -4.37225463 
*
