! EnGrad PBEh-3c
%output 
xyzfile=True 
end 
%scf 
maxiter 250 
end
%output
Print[P_Hirshfeld] = 1
end
% maxcore
4000
*xyz -1 1
C   -1.99431928  -0.07008091   0.64392749 
C   -1.75852736   1.07905030   1.41414834 
C   -3.37553841  -0.38389261   0.50072881 
C   -4.40632771   0.46852830   0.91548319 
C   -4.12225541   1.67641876   1.53458897 
C   -2.79450618   1.95428047   1.78589508 
H   -1.35810214  -2.21963423  -2.29300039 
H   -3.67930255  -1.30841865   0.01870267 
H   -2.53432680   2.83975643   2.35537411 
H   -5.44092751   0.21744777   0.70776903 
H   -4.89845625   2.38761693   1.79701563 
C   -0.39887860   1.48675740   1.93926393 
C    0.72773091   0.45347998   2.02884922 
H   -0.60292476   1.82814729   2.95150911 
H   -0.02701841   2.36253842   1.39647320 
C    1.71395944   0.62125513   0.91757693 
H    0.32934732  -0.56242366   2.04397615 
H    1.23904856   0.59043472   2.97993016 
C    1.48339509  -0.01183852  -0.30202866 
C    2.44493756   0.21620866  -1.31482093 
C    3.48862359   1.13696449  -1.13253109 
C    2.80860206   1.45998964   1.12231947 
C    3.66329832   1.78728260   0.08244609 
H    2.41697374  -0.27904033  -2.28044505 
H    4.19381996   1.36294520  -1.92981432 
H    2.98493489   1.85948265   2.11744723 
H    4.49531280   2.47032346   0.26110364 
Pd  -0.19098017  -1.30251025  -0.24034263 
Br  -1.83908571  -3.25251187  -0.73267722 
P    1.47374773  -2.92266824  -0.13674223 
H    1.18174023  -3.56635613   1.07623922 
C    0.04325905  -1.44567781  -3.71457076 
O    1.11811632  -1.85157761  -4.01445859 
O   -0.84801703  -2.19270041  -3.18356415 
O   -0.37711532  -0.23076987  -4.08922290 
H    2.84581678  -2.73715126   0.12550032 
H    1.57295847  -4.10073723  -0.89069367 
H    0.40910409   0.18715813  -4.46841195 
*
