! EnGrad PBEh-3c
%output 
xyzfile=True 
end 
%scf 
maxiter 250 
end
%output
Print[P_Hirshfeld] = 1
end
% maxcore
4000
*xyz -1 1
C   -1.99284628  -0.05605327   0.61347102 
C   -1.76887618   1.08146972   1.41695721 
C   -3.40613218  -0.29775100   0.40841734 
C   -4.43797648   0.55819759   0.80315164 
C   -4.12046067   1.74500899   1.45548144 
C   -2.80751946   1.96774587   1.78833714 
H   -2.23087457  -2.12266584  -2.28538089 
H   -3.74123337  -1.29053780   0.10688202 
H   -2.55437605   2.92188802   2.24320874 
H   -5.47950397   0.33514933   0.58031053 
H   -4.89242832   2.39727041   1.83429271 
C   -0.42603111   1.42581068   2.08202255 
C    0.75850233   0.43046952   2.06101099 
H   -0.60269615   1.65641704   3.13496778 
H   -0.12783412   2.35848816   1.62033409 
C    1.72017700   0.65261768   0.92960057 
H    0.39954372  -0.59653939   2.05504168 
H    1.32982293   0.54260670   2.98226062 
C    1.49368862   0.10059655  -0.33735269 
C    2.46317414   0.30704747  -1.32541069 
C    3.49905536   1.21821614  -1.13872681 
C    2.83290714   1.47066682   1.13165840 
C    3.68261254   1.82600315   0.09437967 
H    2.46997446  -0.27727670  -2.23252873 
H    4.22693057   1.38421401  -1.92435621 
H    3.09032323   1.77159648   2.14138719 
H    4.40608191   2.62409118   0.22259017 
Pd  -0.08671663  -1.23931785  -0.46857089 
Br  -1.60222648  -3.59901824  -0.50189380 
P    1.48529708  -2.97765969  -0.12903349 
H    1.28276656  -3.64396612   1.10473671 
C    0.15962314  -1.57772075  -3.82528312 
O    1.31064817  -1.81135552  -4.11659943 
O   -0.71105856  -2.35561170  -3.22772552 
O   -0.36162058  -0.31160514  -4.01482210 
H    2.84813518  -2.76962664   0.03711212 
H    1.54541238  -4.10296126  -0.95481571 
H    0.34473717   0.25557898  -4.36591252 
*
