! EnGrad PBEh-3c
%output 
xyzfile=True 
end 
%scf 
maxiter 250 
end
%output
Print[P_Hirshfeld] = 1
end
% maxcore
4000
*xyz -1 1
C   -1.98007347  -0.05277912   0.62095230 
C   -1.75810324   1.08561949   1.40599879 
C   -3.37046258  -0.36329786   0.46982674 
C   -4.40479123   0.51006899   0.84686589 
C   -4.11922422   1.71713249   1.47613155 
C   -2.79081637   1.96272939   1.78265186 
H   -1.69930675  -2.23535828  -2.30863817 
H   -3.69431020  -1.29028374   0.01038889 
H   -2.53123624   2.87762698   2.31393420 
H   -5.45186144   0.28109648   0.63182592 
H   -4.90322017   2.42018886   1.80423715 
C   -0.41128893   1.46046349   2.01894500 
C    0.74532701   0.43501278   2.04855987 
H   -0.62529842   1.70832344   3.06406890 
H   -0.05765327   2.38039937   1.54347163 
C    1.71760855   0.63367471   0.92296113 
H    0.36520842  -0.59219058   2.05052723 
H    1.28973156   0.57198922   2.98976968 
C    1.48341090   0.00973873  -0.30585185 
C    2.44165333   0.25633686  -1.32821118 
C    3.48978327   1.18282341  -1.13252025 
C    2.80350853   1.49711416   1.12560090 
C    3.66532855   1.82110770   0.08962252 
H    2.42829769  -0.28002069  -2.28065792 
H    4.20891535   1.38540801  -1.93750850 
H    3.03732291   1.81903830   2.14115242 
H    4.46198364   2.54602242   0.25156686 
Pd  -0.19626974  -1.26854227  -0.30351508 
Br  -1.72896486  -3.38565176  -0.65844831 
P    1.47657628  -2.93553245  -0.14980422 
H    1.23825278  -3.60530892   1.07647675 
C    0.06027080  -1.51733302  -3.73626647 
O    1.20616216  -1.83529019  -4.07726731 
O   -0.84330740  -2.28148996  -3.15189702 
O   -0.37210119  -0.27402450  -4.05278234 
H    2.88574109  -2.74983713   0.06943494 
H    1.55308342  -4.11062088  -0.93653847 
H    0.37532902   0.21940066  -4.39858686 
*
