! EnGrad PBEh-3c
%output 
xyzfile=True 
end 
%scf 
maxiter 250 
end
%output
Print[P_Hirshfeld] = 1
end
% maxcore
4000
*xyz -1 1
C   -1.97903067  -0.05645597   0.62869885 
C   -1.75982417   1.08318990   1.40665474 
C   -3.37354641  -0.37813561   0.49015312 
C   -4.40211297   0.49198594   0.87061189 
C   -4.11866214   1.70312200   1.49491823 
C   -2.79233640   1.96352276   1.78222749 
H   -1.52496976  -2.25017239  -2.32113768 
H   -3.68451106  -1.29666182  -0.00209754 
H   -2.52866357   2.86009650   2.33418154 
H   -5.44442131   0.25893027   0.65790905 
H   -4.90456166   2.41721648   1.79816400 
C   -0.40448841   1.47704109   1.99358043 
C    0.74085218   0.43691329   2.04219784 
H   -0.62322700   1.74339072   3.02128653 
H   -0.04036290   2.37766133   1.49588872 
C    1.71490982   0.62774111   0.92044162 
H    0.35185957  -0.58412210   2.04669251 
H    1.26990552   0.58080764   2.98634714 
C    1.48614355  -0.00965477  -0.30198796 
C    2.43902954   0.23480336  -1.32916814 
C    3.48756844   1.16583107  -1.12983139 
C    2.80020646   1.49171116   1.12342303 
C    3.66214656   1.81461198   0.08589214 
H    2.42122543  -0.27851044  -2.28678985 
H    4.20523930   1.38203763  -1.93880748 
H    3.01762599   1.83508216   2.13665662 
H    4.48032896   2.51738495   0.25963551 
Pd  -0.21329355  -1.28232509  -0.26395222 
Br  -1.77149121  -3.31891268  -0.70742050 
P    1.47911772  -2.92717421  -0.14991612 
H    1.21701132  -3.58965362   1.07198628 
C    0.02918974  -1.50760475  -3.70583312 
O    1.17167734  -1.84174323  -4.05964978 
O   -0.86995394  -2.24021892  -3.13000967 
O   -0.37740492  -0.25199411  -4.07125355 
H    2.88126812  -2.74466632   0.08922601 
H    1.55898857  -4.10922447  -0.92106919 
H    0.39205090   0.20950310  -4.42288591 
*
