! EnGrad PBEh-3c
%output 
xyzfile=True 
end 
%scf 
maxiter 250 
end
%output
Print[P_Hirshfeld] = 1
end
% maxcore
4000
*xyz -1 1
C   -1.99018572  -0.06248263   0.63962181 
C   -1.75991071   1.07755502   1.41566667 
C   -3.37807013  -0.38873192   0.50563328 
C   -4.40355385   0.47381740   0.90291544 
C   -4.12153183   1.68235680   1.52630725 
C   -2.79405451   1.96098789   1.78007755 
H   -1.36345862  -2.23884596  -2.32089017 
H   -3.67841554  -1.30552255   0.00530990 
H   -2.53115398   2.84158523   2.35323964 
H   -5.43915747   0.22946919   0.69416185 
H   -4.90239186   2.40123436   1.79482452 
C   -0.39826373   1.48751979   1.95406886 
C    0.73274941   0.44629872   2.03181852 
H   -0.61234981   1.80094920   2.96603087 
H   -0.02619802   2.36917395   1.42475882 
C    1.71254512   0.62421515   0.91580635 
H    0.33476219  -0.56980899   2.04293895 
H    1.24512236   0.58883343   2.98088709 
C    1.48567661  -0.01991178  -0.30146461 
C    2.44118951   0.21561048  -1.32110355 
C    3.48844640   1.14237340  -1.13084817 
C    2.80481829   1.46928065   1.12242299 
C    3.65941105   1.80088336   0.08172856 
H    2.41785423  -0.27731803  -2.28629845 
H    4.19931451   1.37220175  -1.93474053 
H    2.99319463   1.85420318   2.12564968 
H    4.49671809   2.48228958   0.26435941 
Pd  -0.20535224  -1.29947211  -0.23593985 
Br  -1.82189911  -3.25690080  -0.74389933 
P    1.47751812  -2.92125731  -0.14286476 
H    1.18996169  -3.57076080   1.07190349 
C    0.00295177  -1.47519861  -3.68119069 
O    1.13121897  -1.85368507  -4.03192851 
O   -0.85818170  -2.18999466  -3.14598164 
O   -0.37939804  -0.23498049  -4.09070109 
H    2.86148456  -2.73949298   0.11701638 
H    1.56907154  -4.10441455  -0.89795157 
H    0.40984346   0.19545911  -4.45779816 
*
