30
Generated by autodE on: 2023-07-17. E = -1702.356523 Ha
Lu   -0.04250   0.00101   0.07894
C     0.29898   0.61123   2.54549
C     1.40663  -0.18216   2.17243
C     2.18048   0.55492   1.25395
C     1.54186   1.79134   1.04069
C     0.38226   1.82828   1.84491
H     1.89266   2.58694   0.39756
H    -0.30776   2.65608   1.91667
H    -0.46968   0.33372   3.24969
H     1.64639  -1.16359   2.55753
H     3.10769   0.23273   0.80498
C     0.63327  -0.09296  -2.42959
C    -0.55221  -0.85005  -2.32291
C     1.08343  -1.93116  -1.15783
C     1.64468  -0.76388  -1.71808
H     0.75235   0.82272  -2.99205
C    -0.27377  -1.98736  -1.54454
H    -1.50026  -0.60427  -2.77744
H     2.67574  -0.45352  -1.64033
H     1.61437  -2.67380  -0.57922
H    -0.97447  -2.77110  -1.29764
C    -2.22406  -0.78848   0.92463
H    -2.46090  -0.49875   1.95174
H    -1.74218  -1.77509   0.98292
H    -3.17305  -0.99881   0.42510
C    -1.74908   1.69167  -0.60448
H    -1.98634   0.57549   0.10106
H    -0.82336   2.18197  -0.96443
H    -2.22693   2.44441   0.01851
H    -2.34984   1.54869  -1.50229
