! EnGrad PBEh-3c
%output 
xyzfile=True 
end 
%scf 
maxiter 250 
end
%output
Print[P_Hirshfeld] = 1
end
% maxcore
4000
*xyz -1 1
Pd  -1.97925967  -1.54838853   0.46278841 
Cl  -3.19450753  -3.30747599  -0.38582911 
Cl  -0.30620441  -4.83127822   0.77153001 
Cl  -4.09634345  -0.84003648   1.44771699 
N   -1.03133598   0.03337293   1.38928265 
C   -1.35086239   0.59809539   2.53998429 
C   -0.82694219   1.82742135   2.96311998 
C    0.09390613   2.46455519   2.15277301 
C   -0.08271218   0.61711628   0.60542835 
C    0.48537318   1.86394390   0.95863231 
H    0.52103542   3.40996080   2.45543658 
H   -2.06331063   0.07263407   3.14957077 
H   -1.14840659   2.26361070   3.89640618 
C    0.31519987  -0.08316056  -0.58717395 
C    1.44186237   2.45854018   0.07298544 
C    1.79556073   1.84257856  -1.07479556 
C    1.26879759   0.56138825  -1.44688609 
H    1.86994501   3.41003720   0.33920234 
H    2.51112701   2.30706523  -1.73518148 
C   -0.31036633  -1.36236805  -0.84148430 
C    1.68232910  -0.08913390  -2.60434680 
C    0.18053619  -1.92667401  -2.05593402 
C    1.15419760  -1.32636006  -2.91296257 
H    2.39161171   0.37902104  -3.26726501 
H    1.49725577  -1.83426706  -3.81745284 
H   -0.57417293  -4.09305735  -0.04789727 
H   -0.24129512  -2.86546145  -2.42687851 
*
