! EnGrad PBEh-3c
%output 
xyzfile=True 
end 
%scf 
maxiter 250 
end
%output
Print[P_Hirshfeld] = 1
end
% maxcore
4000
*xyz -1 1
Pd  -1.98696985  -1.53961758   0.46726071 
Cl  -3.19149243  -3.30930189  -0.39243195 
Cl  -0.28297021  -4.88289130   0.82414640 
Cl  -4.08740980  -0.84465160   1.44927886 
N   -1.02214262   0.04107663   1.38705090 
C   -1.35364215   0.59659254   2.53534331 
C   -0.82522858   1.82750513   2.96188808 
C    0.09326730   2.46563061   2.15560037 
C   -0.08194642   0.61675179   0.60099122 
C    0.48367990   1.85892531   0.95823471 
H    0.52060077   3.41042171   2.45508073 
H   -2.06646873   0.07207036   3.14999881 
H   -1.14830510   2.26300817   3.89546258 
C    0.30794604  -0.08174843  -0.57978399 
C    1.44151265   2.45927957   0.07430718 
C    1.79530365   1.83997421  -1.07521600 
C    1.26246109   0.55360233  -1.43966262 
H    1.87089400   3.41136355   0.33949034 
H    2.51297071   2.30786994  -1.73604033 
C   -0.29079582  -1.35396230  -0.86457450 
C    1.67960083  -0.09174589  -2.60561202 
C    0.17100692  -1.92738900  -2.04854740 
C    1.14809226  -1.32890989  -2.90209495 
H    2.39433555   0.37992520  -3.26889248 
H    1.49399187  -1.83407650  -3.81414771 
H   -0.59446349  -4.04580233  -0.10243288 
H   -0.24078837  -2.86196599  -2.42389883 
*
