! EnGrad PBEh-3c
%output 
xyzfile=True 
end 
%scf 
maxiter 250 
end
%output
Print[P_Hirshfeld] = 1
end
% maxcore
4000
*xyz -1 1
Pd  -1.97901939  -1.52597583   0.44135166 
Cl  -3.17622480  -3.30701545  -0.39815648 
Cl  -0.28970902  -4.87417888   0.82929474 
Cl  -4.07577570  -0.83263818   1.44569921 
N   -1.01726762   0.03807019   1.38163131 
C   -1.35150193   0.59316047   2.53566908 
C   -0.81981780   1.81964896   2.95805690 
C    0.08831228   2.45905310   2.15885095 
C   -0.08082075   0.61631052   0.60370542 
C    0.48652677   1.85706485   0.95428677 
H    0.52049745   3.40988118   2.45289970 
H   -2.07068819   0.06817607   3.14810917 
H   -1.14667252   2.25687361   3.89645862 
C    0.30763403  -0.08484176  -0.58186825 
C    1.43675188   2.45581187   0.07401798 
C    1.79130458   1.83668677  -1.07507083 
C    1.25704960   0.55115726  -1.42972587 
H    1.86862813   3.41406554   0.34000043 
H    2.51079804   2.30919318  -1.73905467 
C   -0.29763351  -1.34925535  -0.86364799 
C    1.67682968  -0.09648559  -2.60745700 
C    0.16780555  -1.92972632  -2.04621159 
C    1.14125187  -1.32937701  -2.89287510 
H    2.39551655   0.38384144  -3.26945366 
H    1.48997946  -1.83244250  -3.80901230 
H   -0.59368841  -4.04062874  -0.08839919 
H   -0.23627795  -2.86375899  -2.41815614 
*
