! EnGrad PBEh-3c
%output 
xyzfile=True 
end 
%scf 
maxiter 250 
end
%output
Print[P_Hirshfeld] = 1
end
% maxcore
4000
*xyz -1 1
Pd  -1.97105543  -1.50079801   0.40451741 
Cl  -3.15057069  -3.30425644  -0.41193411 
Cl  -0.29623882  -4.86720410   0.84674553 
Cl  -4.05220644  -0.81295775   1.43793955 
N   -1.01307742   0.03319437   1.37836995 
C   -1.34856328   0.58511433   2.53288942 
C   -0.81643367   1.80546411   2.95945791 
C    0.08793176   2.45063325   2.15685880 
C   -0.07579770   0.61646043   0.60415639 
C    0.48903029   1.85577819   0.95381817 
H    0.51848865   3.40679287   2.44918775 
H   -2.07668361   0.06152298   3.14279526 
H   -1.14271487   2.24433518   3.89549768 
C    0.30844214  -0.08495935  -0.58433341 
C    1.43176226   2.45362996   0.07240883 
C    1.78487916   1.83102523  -1.07445583 
C    1.25371478   0.54638422  -1.42215240 
H    1.86313984   3.41609120   0.34010759 
H    2.50452223   2.30919789  -1.74266004 
C   -0.30773456  -1.34189269  -0.86370013 
C    1.66928924  -0.09932961  -2.60283147 
C    0.16459422  -1.93191284  -2.04496114 
C    1.13373660  -1.33371339  -2.88406623 
H    2.39419419   0.38749534  -3.26819554 
H    1.47960497  -1.82893115  -3.79481879 
H   -0.59620506  -4.02381880  -0.07205451 
H   -0.23095981  -2.86930478  -2.40760659 
*
