! EnGrad PBEh-3c
%output 
xyzfile=True 
end 
%scf 
maxiter 250 
end
%output
Print[P_Hirshfeld] = 1
end
% maxcore
4000
*xyz -1 1
Pd  -1.96871745  -1.46933769   0.36780716 
Cl  -3.11820584  -3.30139078  -0.43510869 
Cl  -0.30175128  -4.85844610   0.86903990 
Cl  -4.01881978  -0.78898111   1.42628960 
N   -1.00599366   0.02844902   1.37044939 
C   -1.34883590   0.57463295   2.53367586 
C   -0.80867626   1.78982344   2.95697292 
C    0.08599727   2.43998076   2.15977844 
C   -0.07155873   0.61585404   0.60635819 
C    0.49315422   1.85411771   0.95281733 
H    0.51455029   3.40123600   2.44442709 
H   -2.08227456   0.05309033   3.13259075 
H   -1.13812134   2.22754502   3.89592620 
C    0.30917685  -0.08316437  -0.58663571 
C    1.42769858   2.45287025   0.06936170 
C    1.77967412   1.82719131  -1.07374685 
C    1.25439723   0.54369149  -1.41849312 
H    1.85505493   3.41686975   0.33899436 
H    2.49305612   2.30599028  -1.74507033 
C   -0.31630638  -1.33163955  -0.86674660 
C    1.66138808  -0.10222885  -2.59865699 
C    0.16130786  -1.93374450  -2.04467884 
C    1.12776898  -1.33480204  -2.87282637 
H    2.38600837   0.38712745  -3.26153202 
H    1.46511467  -1.82763516  -3.77740346 
H   -0.60078658  -4.00202984  -0.04964516 
H   -0.22739689  -2.87919694  -2.39320585 
*
