! EnGrad PBEh-3c
%output 
xyzfile=True 
end 
%scf 
maxiter 250 
end
%output
Print[P_Hirshfeld] = 1
end
% maxcore
4000
*xyz -1 1
Pd  -1.96967357  -1.43491634   0.32823419 
Cl  -3.07795382  -3.29689162  -0.46864633 
Cl  -0.30788757  -4.84522815   0.89675055 
Cl  -3.97779275  -0.75782173   1.41031117 
N   -1.00333317   0.02541754   1.36865092 
C   -1.34518131   0.55899207   2.52643677 
C   -0.80541903   1.76958122   2.96244296 
C    0.09207164   2.43147997   2.15746628 
C   -0.06331512   0.61471480   0.60453490 
C    0.49522939   1.85139319   0.95678610 
H    0.50751043   3.39176710   2.43948137 
H   -2.08956609   0.04085501   3.11909967 
H   -1.13119940   2.20439334   3.89528481 
C    0.30946070  -0.07865825  -0.58625313 
C    1.42474588   2.45526109   0.06633557 
C    1.77621576   1.82590887  -1.07399687 
C    1.25819526   0.54236404  -1.41993309 
H    1.84394652   3.41661527   0.33602030 
H    2.47722196   2.30064301  -1.74781852 
C   -0.32415155  -1.32182874  -0.87442991 
C    1.65501545  -0.10089186  -2.59247123 
C    0.15430938  -1.93482310  -2.03817400 
C    1.12253048  -1.33522999  -2.86200251 
H    2.37174091   0.38318751  -3.25111882 
H    1.44837196  -1.83033933  -3.76033429 
H   -0.60684031  -3.97449276  -0.01752288 
H   -0.22480710  -2.89340592  -2.37492457 
*
