! EnGrad PBEh-3c
%output 
xyzfile=True 
end 
%scf 
maxiter 250 
end
%output
Print[P_Hirshfeld] = 1
end
% maxcore
4000
*xyz -1 1
Pd  -1.97465989  -1.42218763   0.31273514 
Cl  -3.05444975  -3.29240347  -0.49631896 
Cl  -0.31204876  -4.82959017   0.91138918 
Cl  -3.95621317  -0.73539655   1.39758577 
N   -0.99940997   0.02548510   1.36109964 
C   -1.34576324   0.54809456   2.52673502 
C   -0.79833185   1.76151711   2.96212795 
C    0.09233840   2.42350700   2.16291829 
C   -0.06080763   0.61136367   0.60406733 
C    0.49758168   1.84764774   0.95743152 
H    0.50248184   3.38638475   2.43875551 
H   -2.09155341   0.03205999   3.10750609 
H   -1.12721902   2.18809645   3.89852554 
C    0.31039616  -0.07455497  -0.58557449 
C    1.42319294   2.45726500   0.06607486 
C    1.77507938   1.82864039  -1.07308796 
C    1.25962492   0.54430296  -1.42157717 
H    1.83671069   3.41783644   0.33246402 
H    2.46884836   2.29877403  -1.75243385 
C   -0.32442438  -1.31611669  -0.88064276 
C    1.65173096  -0.10029090  -2.58779361 
C    0.14869756  -1.93748840  -2.03138522 
C    1.12003667  -1.33532858  -2.85738050 
H    2.36272763   0.37973895  -3.24715460 
H    1.44085924  -1.83796313  -3.75719126 
H   -0.60977773  -3.95906191   0.01289308 
H   -0.22422373  -2.90141675  -2.36213481 
*
