! EnGrad PBEh-3c
%output 
xyzfile=True 
end 
%scf 
maxiter 250 
end
%output
Print[P_Hirshfeld] = 1
end
% maxcore
4000
*xyz -1 1
Pd  -2.38040822  -1.63999507   0.82188567 
Cl  -3.97260663  -3.09311007   0.06865354 
Cl  -1.23590724  -3.85155181   1.84292755 
Cl  -3.53929299   0.15207754  -0.00690392 
N   -0.90352234  -0.27138172   1.43832533 
C   -1.17949230   0.24003442   2.62145395 
C   -0.69411449   1.47252113   3.05829931 
C    0.07861185   2.20047684   2.19371409 
C   -0.06103589   0.37559812   0.60668494 
C    0.41116343   1.66014252   0.94600660 
H    0.43939784   3.18335724   2.47378011 
H   -1.84768048  -0.33343569   3.25171840 
H   -0.95893481   1.84214811   4.03899983 
C    0.38930034  -0.25738368  -0.60954587 
C    1.20151379   2.39620855   0.01408411 
C    1.52349733   1.85989042  -1.17917105 
C    1.15433789   0.51942351  -1.50867949 
H    1.52407211   3.39837167   0.27366381 
H    2.10672908   2.43596843  -1.89054182 
C    0.14940101  -1.61008243  -0.91491420 
C    1.60648462  -0.04688005  -2.70983867 
C    0.62251912  -2.13948950  -2.09711591 
C    1.34505087  -1.36007283  -3.00544318 
H    2.18107283   0.55442303  -3.40654745 
H    1.70455361  -1.78918652  -3.93235727 
H   -0.12541509  -2.71249913  -0.05512418 
H    0.46069657  -3.18557303  -2.33402242 
*
