! EnGrad PBEh-3c
%output 
xyzfile=True 
end 
%scf 
maxiter 250 
end
%output
Print[P_Hirshfeld] = 1
end
% maxcore
4000
*xyz -1 1
Pd  -2.22011402  -1.84370744   0.81807282 
Cl  -3.70257226  -3.24368520  -0.09227388 
Cl  -0.96455044  -4.03357553   1.48735324 
Cl  -3.77028594  -0.09831840   0.46938431 
N   -0.94007453  -0.20439894   1.45855706 
C   -1.25259302   0.36849751   2.60383373 
C   -0.74281745   1.60287941   3.02245823 
C    0.07976375   2.28797716   2.17313855 
C   -0.06934244   0.40292170   0.62849973 
C    0.42939372   1.70995583   0.94250356 
H    0.47178354   3.26619553   2.44560918 
H   -1.93030766  -0.18260272   3.23605574 
H   -1.03677839   2.00389132   3.98262372 
C    0.38077116  -0.32209441  -0.55793006 
C    1.28479051   2.40536143   0.03993382 
C    1.60551550   1.81914907  -1.13554635 
C    1.15394137   0.48377623  -1.45092515 
H    1.65835619   3.39619102   0.30560828 
H    2.25661950   2.36148421  -1.82883072 
C    0.13652885  -1.67951795  -0.85487618 
C    1.62570353  -0.05880652  -2.67275109 
C    0.46937544  -2.11746224  -2.13238264 
C    1.22897434  -1.32559825  -3.00202827 
H    2.28087533   0.51881347  -3.33068284 
H    1.61838272  -1.77944438  -3.90691080 
H   -0.21891724  -2.63746071  -0.20594745 
H    0.17139257  -3.10016643  -2.43890743 
*
