! EnGrad PBEh-3c
%output 
xyzfile=True 
end 
%scf 
maxiter 250 
end
%output
Print[P_Hirshfeld] = 1
end
% maxcore
4000
*xyz -1 1
Pd  -2.23151132  -1.83717633   0.82137928 
Cl  -3.72391337  -3.22899523  -0.07727603 
Cl  -0.99374897  -4.01961415   1.52259235 
Cl  -3.75230966  -0.07142561   0.42413939 
N   -0.93821535  -0.20894221   1.45645212 
C   -1.24565078   0.35860894   2.60584148 
C   -0.73820225   1.59145756   3.02625308 
C    0.08051582   2.28181641   2.17537115 
C   -0.06976064   0.40126847   0.62569391 
C    0.42776140   1.70699074   0.94309597 
H    0.46912628   3.25944041   2.44871007 
H   -1.92217200  -0.19561965   3.23705704 
H   -1.03016471   1.98996811   3.98727006 
C    0.37755703  -0.31932253  -0.56150707 
C    1.27912860   2.40627209   0.03672131 
C    1.59842319   1.82327636  -1.13843594 
C    1.15125085   0.48493455  -1.45776142 
H    1.64721809   3.39759322   0.30326857 
H    2.24559299   2.37054097  -1.83476356 
C    0.14354488  -1.68320762  -0.85796168 
C    1.62488875  -0.05594474  -2.67431181 
C    0.47993585  -2.11642611  -2.12707867 
C    1.23691485  -1.32843829  -3.00318467 
H    2.27455552   0.52425022  -3.34004741 
H    1.62767162  -1.77920086  -3.90761096 
H   -0.20981574  -2.64397804  -0.20075122 
H    0.19538542  -3.10743976  -2.43020238 
*
