! EnGrad PBEh-3c
%output 
xyzfile=True 
end 
%scf 
maxiter 250 
end
%output
Print[P_Hirshfeld] = 1
end
% maxcore
4000
*xyz -1 1
Pd  -2.22398910  -1.84148686   0.81919701 
Cl  -3.70982824  -3.23869061  -0.08717461 
Cl  -0.97447794  -4.02882866   1.49933454 
Cl  -3.76417401  -0.08917485   0.45400104 
N   -0.93944241  -0.20594365   1.45784138 
C   -1.25023266   0.36513540   2.60451637 
C   -0.74124828   1.59899598   3.02374848 
C    0.08001945   2.28588251   2.17389763 
C   -0.06948463   0.40235960   0.62754575 
C    0.42883873   1.70894770   0.94270498 
H    0.47088007   3.26389879   2.44666348 
H   -1.92754154  -0.18702848   3.23639618 
H   -1.03452974   1.99915743   3.98420348 
C    0.37967836  -0.32115197  -0.55914624 
C    1.28286546   2.40567106   0.03884156 
C    1.60310411   1.82055235  -1.13652881 
C    1.15302659   0.48417006  -1.45324948 
H    1.65456923   3.39666777   0.30481278 
H    2.25287048   2.36456351  -1.83084788 
C    0.13891430  -1.68077244  -0.85592525 
C    1.62542650  -0.05783352  -2.67328174 
C    0.47296598  -2.11710996  -2.13057929 
C    1.23167412  -1.32656386  -3.00242145 
H    2.27872660   0.52066197  -3.33386679 
H    1.62154094  -1.77936159  -3.90714885 
H   -0.21582273  -2.63967660  -0.20418073 
H    0.17955014  -3.10263936  -2.43594771 
*
