! EnGrad PBEh-3c
%output 
xyzfile=True 
end 
%scf 
maxiter 250 
end
%output
Print[P_Hirshfeld] = 1
end
% maxcore
4000
*xyz -1 1
Pd  -2.32411102  -1.75569517   0.82544939 
Cl  -3.86076801  -3.13022975   0.01798993 
Cl  -1.15308773  -3.93299771   1.73211869 
Cl  -3.63334392   0.08834565   0.14382367 
N   -0.92494530  -0.23726574   1.44531520 
C   -1.20145329   0.28742243   2.61998714 
C   -0.70914340   1.51677088   3.04219206 
C    0.07628746   2.23034296   2.19316178 
C   -0.06161758   0.39007719   0.61338473 
C    0.42408753   1.69115409   0.94461101 
H    0.45135919   3.21248817   2.46474547 
H   -1.87073797  -0.27743874   3.24049105 
H   -0.98659542   1.89892393   4.01825092 
C    0.35736670  -0.24671832  -0.59224627 
C    1.23414564   2.40406019   0.02160137 
C    1.56155090   1.85944509  -1.16285484 
C    1.16704723   0.52506656  -1.51268066 
H    1.57058065   3.39649169   0.28450202 
H    2.16159591   2.41515139  -1.86717082 
C    0.10992968  -1.84998098  -0.77937670 
C    1.62323012  -0.05010449  -2.70780889 
C    0.55811251  -2.09922094  -2.13101128 
C    1.30784781  -1.34268265  -3.00440072 
H    2.21348516   0.54330583  -3.37998235 
H    1.68473141  -1.78239851  -3.92523290 
H   -0.12995201  -2.61719289  -0.18934286 
H    0.35706080  -3.13524101  -2.35646909 
*
