! EnGrad PBEh-3c
%output 
xyzfile=True 
end 
%scf 
maxiter 250 
end
%output
Print[P_Hirshfeld] = 1
end
% maxcore
4000
*xyz -1 1
Pd  -2.29206739  -1.80383292   0.82998018 
Cl  -3.81474012  -3.15633006  -0.00920045 
Cl  -1.11429057  -3.95607075   1.67250992 
Cl  -3.67247101   0.04856606   0.22298403 
N   -0.93373254  -0.22858199   1.45104031 
C   -1.21262274   0.30842138   2.61226201 
C   -0.72003645   1.53977752   3.04415703 
C    0.08179856   2.25030787   2.18498629 
C   -0.06287294   0.40721041   0.61959297 
C    0.42522966   1.69810875   0.94577188 
H    0.45625656   3.22585225   2.46030193 
H   -1.88548890  -0.25216264   3.23888845 
H   -0.99948963   1.92589137   4.00613009 
C    0.34617055  -0.30563340  -0.57750222 
C    1.24787991   2.40840298   0.03018582 
C    1.57600381   1.84964036  -1.15914585 
C    1.15705287   0.51237423  -1.49539500 
H    1.59423770   3.39748585   0.29039924 
H    2.19008611   2.40574226  -1.85819704 
C    0.16142500  -1.77155184  -0.86057378 
C    1.62787207  -0.05276937  -2.70207873 
C    0.49914390  -2.12709876  -2.07702898 
C    1.29407692  -1.32089583  -3.01383549 
H    2.23439346   0.54040516  -3.37092540 
H    1.66990227  -1.77996236  -3.91863714 
H   -0.16032566  -2.64545567  -0.18692798 
H    0.31047192  -3.11547226  -2.38011051 
*
