! EnGrad PBEh-3c
%output 
xyzfile=True 
end 
%scf 
maxiter 250 
end
%output
Print[P_Hirshfeld] = 1
end
% maxcore
4000
*xyz -1 1
Pd  -2.28459625  -1.79980545   0.82903284 
Cl  -3.80885672  -3.16742852  -0.01745617 
Cl  -1.10086728  -3.96037277   1.65578259 
Cl  -3.67858560   0.03208143   0.24637758 
N   -0.93185289  -0.22780552   1.45099460 
C   -1.21767788   0.31306542   2.61154182 
C   -0.72017505   1.54690652   3.04088770 
C    0.08077695   2.25321140   2.18512865 
C   -0.06639314   0.40162098   0.61917991 
C    0.42528982   1.69812067   0.94437399 
H    0.45772379   3.22991163   2.45919344 
H   -1.89006276  -0.24688007   3.23972894 
H   -1.00295131   1.93288760   4.00512571 
C    0.35872648  -0.31465435  -0.57998194 
C    1.25074123   2.40703312   0.03060204 
C    1.57548546   1.84283328  -1.15653006 
C    1.14883938   0.50302997  -1.48112655 
H    1.60026592   3.39871386   0.29219020 
H    2.19668114   2.40248612  -1.85679867 
C    0.16314231  -1.71034027  -0.86618135 
C    1.62710959  -0.05156869  -2.69777581 
C    0.50877784  -2.12982182  -2.09734832 
C    1.28080012  -1.32779533  -3.00705757 
H    2.24044096   0.53953103  -3.36906746 
H    1.66419527  -1.78058155  -3.91698519 
H   -0.17106743  -2.66064992  -0.17468379 
H    0.29779697  -3.12180805  -2.38881264 
*
