! EnGrad PBEh-3c
%output 
xyzfile=True 
end 
%scf 
maxiter 250 
end
%output
Print[P_Hirshfeld] = 1
end
% maxcore
4000
*xyz -1 1
Pd  -2.22653309  -1.84830670   0.82575771 
Cl  -3.72356979  -3.22901797  -0.07636819 
Cl  -1.00212569  -4.02097923   1.52901386 
Cl  -3.75393020  -0.06620544   0.41965770 
N   -0.93813734  -0.20754097   1.45527030 
C   -1.24660261   0.35933360   2.60699658 
C   -0.73458043   1.59379478   3.02460034 
C    0.07982124   2.28314526   2.17908033 
C   -0.07498559   0.39610192   0.62277734 
C    0.42870517   1.70991184   0.94174238 
H    0.46949238   3.26055852   2.44978551 
H   -1.92097275  -0.19598562   3.23708390 
H   -1.03073024   1.99040876   3.98814588 
C    0.38100220  -0.33263369  -0.56821483 
C    1.28100807   2.40755526   0.03489018 
C    1.59585112   1.82046520  -1.13642896 
C    1.13696803   0.47469101  -1.44696039 
H    1.64838215   3.40073915   0.30442208 
H    2.24991636   2.37582447  -1.83707417 
C    0.15310577  -1.64887000  -0.84800751 
C    1.62787779  -0.05043510  -2.67267265 
C    0.49070665  -2.11297066  -2.14715322 
C    1.22315711  -1.33740754  -2.99534088 
H    2.27993120   0.52885890  -3.34592856 
H    1.63005851  -1.77817892  -3.90538657 
H   -0.21221996  -2.65660153  -0.20334422 
H    0.19301097  -3.11501117  -2.43365173 
*
