! EnGrad PBEh-3c
%output 
xyzfile=True 
end 
%scf 
maxiter 250 
end
%output
Print[P_Hirshfeld] = 1
end
% maxcore
4000
*xyz -1 1
Pd  -2.24132023  -1.83155543   0.82422494 
Cl  -3.74228027  -3.21635253  -0.06436836 
Cl  -1.01887824  -4.00759850   1.55292036 
Cl  -3.73683865  -0.04828075   0.38520004 
N   -0.93661527  -0.21285230   1.45464054 
C   -1.23967605   0.35009849   2.60756941 
C   -0.73423026   1.58162753   3.02951906 
C    0.08116308   2.27651425   2.17729261 
C   -0.07012057   0.39984565   0.62327913 
C    0.42635657   1.70443888   0.94360582 
H    0.46683935   3.25362672   2.45137881 
H   -1.91517017  -0.20682246   3.23791879 
H   -1.02447274   1.97798531   3.99126886 
C    0.37479084  -0.31693696  -0.56458556 
C    1.27425577   2.40705583   0.03395652 
C    1.59231930   1.82682846  -1.14092282 
C    1.14893529   0.48593144  -1.46364496 
H    1.63763226   3.39879999   0.30125493 
H    2.23610319   2.37833554  -1.83986956 
C    0.14958311  -1.68638308  -0.86061716 
C    1.62418753  -0.05348180  -2.67565503 
C    0.48902450  -2.11553439  -2.12251389 
C    1.24374873  -1.33088253  -3.00417990 
H    2.26911646   0.52892928  -3.34810688 
H    1.63566597  -1.77899128  -3.90821354 
H   -0.20198267  -2.64958707  -0.19627916 
H    0.21603451  -3.11369943  -2.42271052 
*
