! EnGrad PBEh-3c
%output 
xyzfile=True 
end 
%scf 
maxiter 250 
end
%output
Print[P_Hirshfeld] = 1
end
% maxcore
4000
*xyz -1 1
Pd  -2.12600941  -1.89763316   0.79077219 
Cl  -3.52636415  -3.36497656  -0.21610736 
Cl  -0.72346559  -4.14885110   1.19639282 
Cl  -3.91871154  -0.32036528   0.84296013 
N   -0.95542536  -0.16688637   1.47593699 
C   -1.30991333   0.45014492   2.58725631 
C   -0.78092392   1.69718670   2.99112511 
C    0.07355409   2.33884492   2.15470447 
C   -0.06588940   0.41657196   0.65166663 
C    0.44287139   1.73443784   0.93761220 
H    0.49372385   3.32197084   2.42000588 
H   -1.99748177  -0.07512529   3.22778829 
H   -1.09138588   2.11885171   3.94426008 
C    0.40730943  -0.34498104  -0.52839565 
C    1.33153940   2.39784236   0.06645866 
C    1.66407489   1.78507104  -1.11168776 
C    1.17615630   0.47421225  -1.39447976 
H    1.75032061   3.38461349   0.32492666 
H    2.34766258   2.28670482  -1.77984478 
C    0.07859928  -1.64905327  -0.82940001 
C    1.63243093  -0.08243551  -2.65986460 
C    0.38218087  -2.12601725  -2.17617621 
C    1.16341156  -1.30214873  -2.99248019 
H    2.33305645   0.47392362  -3.25336202 
H    1.54168660  -1.78145508  -3.90112979 
H   -0.29406602  -2.58364882  -0.24885143 
H   -0.02671034  -3.04011246  -2.51078276 
*
