! EnGrad PBEh-3c
%output 
xyzfile=True 
end 
%scf 
maxiter 250 
end
%output
Print[P_Hirshfeld] = 1
end
% maxcore
4000
*xyz -1 1
Pd  -2.21260171  -1.84801229   0.81589342 
Cl  -3.68850569  -3.25336781  -0.10215943 
Cl  -0.94530480  -4.04277790   1.46412606 
Cl  -3.78213466  -0.11604425   0.49920662 
N   -0.94129998  -0.20140434   1.45994449 
C   -1.25716886   0.37501537   2.60251037 
C   -0.74585946   1.61040790   3.01995693 
C    0.07926804   2.29203790   2.17166697 
C   -0.06906678   0.40401139   0.63034912 
C    0.43046963   1.71191022   0.94211309 
H    0.47353502   3.27064803   2.44356529 
H   -1.93567013  -0.17402287   3.23539576 
H   -1.04113767   2.01306853   3.97956118 
C    0.38288970  -0.32392143  -0.55557235 
C    1.28852244   2.40476119   0.04205128 
C    1.61019025   1.81642864  -1.13364173 
C    1.15571477   0.48301274  -1.44641915 
H    1.66569765   3.39526680   0.30715045 
H    2.26388741   2.35551462  -1.82492020 
C    0.13190437  -1.67708598  -0.85284243 
C    1.62624057  -0.06069281  -2.67172237 
C    0.46241476  -2.11814518  -2.13587866 
C    1.22374051  -1.32372629  -3.00126605 
H    2.28504092   0.51522995  -3.32451037 
H    1.61226012  -1.77960490  -3.90644931 
H   -0.22491632  -2.63316494  -0.20937245 
H    0.15557814  -3.09537237  -2.44464519 
*
