! EnGrad PBEh-3c
%output 
xyzfile=True 
end 
%scf 
maxiter 250 
end
%output
Print[P_Hirshfeld] = 1
end
% maxcore
4000
*xyz -1 1
Pd  -2.04858456  -1.51770177   0.55548141 
Cl  -3.12379475  -3.30398875  -0.49813376 
Cl   0.11659979  -5.17056627   0.56856797 
Cl  -3.98172007  -1.21690800   1.75787514 
N   -1.06072036   0.12145394   1.37045112 
C   -1.41840081   0.71351134   2.49568286 
C   -0.86582747   1.92231749   2.92698360 
C    0.09639036   2.52119402   2.14990525 
C   -0.10087346   0.67711792   0.59914571 
C    0.49964973   1.89964722   0.96009146 
H    0.53835532   3.46189872   2.45786196 
H   -2.13680152   0.18066852   3.10409485 
H   -1.19507716   2.37059185   3.85337771 
C    0.29556724  -0.02520272  -0.57973441 
C    1.49186033   2.45677561   0.09246238 
C    1.84979981   1.81505482  -1.04576735 
C    1.27469246   0.55560996  -1.41259979 
H    1.95119471   3.40166441   0.35597828 
H    2.60048602   2.25836311  -1.69011164 
C   -0.29144101  -1.27345130  -0.87860640 
C    1.66754994  -0.12772337  -2.57222814 
C    0.10292091  -1.90165180  -2.04687599 
C    1.09768202  -1.34775858  -2.86240343 
H    2.41596471   0.29987966  -3.22820215 
H    1.41384145  -1.86901335  -3.75602734 
H   -0.78789330  -4.10362024  -0.31183246 
H   -0.40142261  -2.79816246  -2.36543915 
*
