! EnGrad PBEh-3c
%output 
xyzfile=True 
end 
%scf 
maxiter 250 
end
%output
Print[P_Hirshfeld] = 1
end
% maxcore
4000
*xyz -1 1
Pd  -1.96581868  -1.51084010   0.46744162 
Cl  -3.08830119  -3.30397240  -0.48853449 
Cl  -0.03184593  -5.02046003   0.51256228 
Cl  -4.00935078  -1.16071130   1.74218903 
N   -1.07201008   0.10506086   1.37501209 
C   -1.40470146   0.69003571   2.51342403 
C   -0.85464699   1.90786664   2.92227289 
C    0.08847232   2.50792721   2.14995626 
C   -0.09746524   0.67184525   0.60308345 
C    0.50460654   1.90426969   0.95846087 
H    0.53889021   3.45507123   2.45335275 
H   -2.13510866   0.17013531   3.10232484 
H   -1.19056197   2.35459272   3.85985255 
C    0.30904158  -0.04064818  -0.58923106 
C    1.48400361   2.44862364   0.08415538 
C    1.84049785   1.82176079  -1.04351144 
C    1.28228688   0.56631405  -1.41758040 
H    1.94030894   3.40317972   0.35545255 
H    2.58949296   2.26273281  -1.69757012 
C   -0.37498104  -1.28810624  -0.81551708 
C    1.66594869  -0.13145317  -2.56950975 
C    0.10987007  -1.88824054  -2.03547559 
C    1.10716461  -1.33964429  -2.87459223 
H    2.41452468   0.31080393  -3.23199928 
H    1.42346622  -1.86751118  -3.76761537 
H   -0.68714233  -4.20573098  -0.19312778 
H   -0.38371479  -2.81981670  -2.37523068 
*
