! EnGrad PBEh-3c
%output 
xyzfile=True 
end 
%scf 
maxiter 250 
end
%output
Print[P_Hirshfeld] = 1
end
% maxcore
4000
*xyz -1 1
Pd  -1.95273693  -1.50626583   0.44625493 
Cl  -3.07243607  -3.30305985  -0.48914481 
Cl  -0.06311581  -4.99021103   0.51084056 
Cl  -4.00918122  -1.14146574   1.73271369 
N   -1.06428235   0.10468794   1.37075899 
C   -1.40007925   0.68062092   2.51302718 
C   -0.85744392   1.89977749   2.93101124 
C    0.09442594   2.51215588   2.14649964 
C   -0.09460896   0.67047297   0.60283273 
C    0.49985369   1.89591064   0.95794640 
H    0.53702070   3.45010216   2.45120521 
H   -2.13801275   0.16494054   3.10396318 
H   -1.18715844   2.34686472   3.85816386 
C    0.29902502  -0.04424739  -0.57590131 
C    1.48285376   2.45789004   0.09037122 
C    1.84228924   1.82113481  -1.05233242 
C    1.27935989   0.55807460  -1.41890891 
H    1.93511456   3.40062250   0.35389622 
H    2.58436951   2.26400389  -1.69904418 
C   -0.37514843  -1.28871000  -0.82696212 
C    1.67473615  -0.12216667  -2.57369822 
C    0.09475679  -1.89312892  -2.02070174 
C    1.10085977  -1.34172178  -2.86851473 
H    2.41177387   0.31308664  -3.23113495 
H    1.42544742  -1.86693024  -3.77032525 
H   -0.67090058  -4.21971007  -0.16829641 
H   -0.37219639  -2.81848606  -2.37485885 
*
