! EnGrad PBEh-3c
%output 
xyzfile=True 
end 
%scf 
maxiter 250 
end
%output
Print[P_Hirshfeld] = 1
end
% maxcore
4000
*xyz -1 1
Pd  -1.96242624  -1.50393422   0.44997561 
Cl  -3.06752597  -3.30255655  -0.49218610 
Cl  -0.04400652  -5.01420709   0.53806914 
Cl  -4.00239720  -1.13630418   1.72635942 
N   -1.05667268   0.10664076   1.36768890 
C   -1.39995446   0.67818017   2.51012026 
C   -0.85566845   1.89763554   2.93213415 
C    0.09360449   2.51074461   2.14742082 
C   -0.09445353   0.66904981   0.60288149 
C    0.49887172   1.89369562   0.95788217 
H    0.53664927   3.44981775   2.45078606 
H   -2.13964250   0.16241912   3.10479249 
H   -1.18622927   2.34430194   3.85818076 
C    0.29361450  -0.04322436  -0.57075411 
C    1.48258166   2.45804825   0.08929293 
C    1.84066397   1.82049251  -1.05159077 
C    1.27499979   0.55244181  -1.41543598 
H    1.93419912   3.40166343   0.35394386 
H    2.58379511   2.26503715  -1.70057380 
C   -0.35947755  -1.28492951  -0.84447090 
C    1.67495967  -0.12254975  -2.57585346 
C    0.08872408  -1.89756708  -2.01862255 
C    1.09544058  -1.34240212  -2.86073389 
H    2.41226285   0.31451015  -3.23191182 
H    1.42395344  -1.86609776  -3.76793107 
H   -0.69243297  -4.19121192  -0.18783885 
H   -0.36805723  -2.81519567  -2.37235624 
*
