! EnGrad PBEh-3c
%output 
xyzfile=True 
end 
%scf 
maxiter 250 
end
%output
Print[P_Hirshfeld] = 1
end
% maxcore
4000
*xyz -1 1
Pd  -1.96674703  -1.48114447   0.42109697 
Cl  -3.01905038  -3.30141874  -0.50854981 
Cl  -0.06562882  -5.00362984   0.60610908 
Cl  -3.97525938  -1.07574361   1.67902408 
N   -1.03870028   0.09764021   1.36525115 
C   -1.39133964   0.65565138   2.50763967 
C   -0.84435054   1.87094796   2.93632451 
C    0.09035171   2.49660446   2.14903553 
C   -0.08590649   0.66507797   0.60485520 
C    0.49987839   1.88916592   0.95741578 
H    0.53309412   3.44249102   2.44554966 
H   -2.14341744   0.14302197   3.10232396 
H   -1.17828025   2.31959898   3.86281843 
C    0.28956217  -0.04370595  -0.57107791 
C    1.47358611   2.45658749   0.08454473 
C    1.82793755   1.81381655  -1.05341968 
C    1.26411378   0.54046899  -1.40191913 
H    1.92184813   3.40728451   0.35299620 
H    2.56954221   2.26976679  -1.71062844 
C   -0.34874847  -1.27276274  -0.86881038 
C    1.66395771  -0.12902488  -2.57261134 
C    0.08513287  -1.90336366  -2.02199668 
C    1.08202438  -1.34613738  -2.84431143 
H    2.41127495   0.32589629  -3.23670023 
H    1.41444153  -1.85775558  -3.74959209 
H   -0.71156912  -4.14800571  -0.17401472 
H   -0.34527442  -2.82362209  -2.36483384 
*
