! EnGrad PBEh-3c
%output 
xyzfile=True 
end 
%scf 
maxiter 250 
end
%output
Print[P_Hirshfeld] = 1
end
% maxcore
4000
*xyz -1 1
Pd  -1.96206482  -1.44218308   0.37832803 
Cl  -2.95045051  -3.30412220  -0.54465487 
Cl  -0.12066444  -4.95298765   0.68755572 
Cl  -3.93844407  -0.98019329   1.60198971 
N   -1.03015834   0.07669821   1.36548638 
C   -1.37917922   0.62373309   2.51376661 
C   -0.82840358   1.83313032   2.94426186 
C    0.09111898   2.47425773   2.15467810 
C   -0.07565639   0.65482077   0.60719431 
C    0.50410595   1.88406648   0.95901014 
H    0.52265864   3.42750089   2.43986077 
H   -2.13968961   0.11264154   3.08890534 
H   -1.16459801   2.27545674   3.87185457 
C    0.29592885  -0.04280996  -0.58235014 
C    1.46200548   2.45775486   0.07654798 
C    1.81684109   1.81548522  -1.05574674 
C    1.27100628   0.54573460  -1.40672903 
H    1.89929746   3.41200973   0.34645991 
H    2.53707877   2.26875994  -1.72192719 
C   -0.36676202  -1.26919772  -0.86614366 
C    1.65614097  -0.12588915  -2.56860018 
C    0.09317206  -1.90448146  -2.02792428 
C    1.08627920  -1.33827398  -2.84239038 
H    2.38769065   0.32843708  -3.22721135 
H    1.40147209  -1.85700950  -3.73299113 
H   -0.72053625  -4.10688083  -0.11492924 
H   -0.32436589  -2.85474077  -2.35324816 
*
