! EnGrad PBEh-3c
%output 
xyzfile=True 
end 
%scf 
maxiter 250 
end
%output
Print[P_Hirshfeld] = 1
end
% maxcore
4000
*xyz -1 1
C   -1.73189995   0.04743958   0.56482455 
C   -1.54172731   1.00151505   1.56639111 
C   -2.89180201   0.12356820  -0.21200966 
C   -3.82134162   1.13680333  -0.06161793 
C   -3.62758180   2.09270330   0.91737109 
C   -2.52515415   1.97862752   1.73880327 
H   -1.61006853  -3.21349883  -2.24474945 
H   -3.10725587  -0.63594298  -0.95083594 
H   -2.47431681   2.64005326   2.59872307 
H   -4.69926835   1.17139121  -0.69600072 
H   -4.36489997   2.86943107   1.07919215 
C   -0.45608127   0.97855211   2.61244337 
C    0.84964974   0.22562348   2.40623296 
H   -0.90382776   0.63373705   3.55301573 
H   -0.16989828   2.01663381   2.81687053 
C    1.58578837   0.66690179   1.17441660 
H    0.66321590  -0.84956095   2.37497739 
H    1.48689766   0.37138739   3.28748056 
C    1.27478446   0.10017641  -0.06751435 
C    1.98502619   0.54816194  -1.18067659 
C    2.96671427   1.52790007  -1.08634188 
C    2.62367235   1.58930443   1.27550615 
C    3.26778647   2.07802273   0.14815193 
H    1.83237178   0.09269261  -2.15231875 
H    3.50646888   1.84401039  -1.97177824 
H    2.93489076   1.93726115   2.25612416 
H    4.03049573   2.84229453   0.23639278 
Pd  -0.03566763  -1.38888971  -0.18259651 
Br  -1.65202355  -3.50407098   0.19179723 
P    1.55383556  -2.97186152  -0.40988605 
H    1.85881734  -3.73852436   0.73092157 
C   -0.08400462  -1.87581444  -3.64899799 
O    0.97846414  -1.74348719  -4.19279017 
O   -0.58410630  -3.03026491  -3.31777079 
O   -0.95336053  -0.86917606  -3.52758450 
H    2.88133529  -2.60615354  -0.70586558 
H    1.44973015  -4.05410530  -1.29630769 
H   -0.49570188  -0.03284991  -3.62399083 
*
