! EnGrad PBEh-3c
%output 
xyzfile=True 
end 
%scf 
maxiter 250 
end
%output
Print[P_Hirshfeld] = 1
end
% maxcore
4000
*xyz -1 1
C   -1.66767595   0.02076580   0.52340585 
C   -1.56730112   0.99435383   1.55136799 
C   -2.91306734   0.10189173  -0.19408065 
C   -3.86537322   1.10432825  -0.02531827 
C   -3.66318576   2.06885537   0.94555577 
C   -2.53970587   1.99327761   1.75372250 
H   -1.52022083  -3.13991856  -2.32883537 
H   -3.13085878  -0.65456157  -0.93394742 
H   -2.46934998   2.65909904   2.58662357 
H   -4.75162463   1.12047690  -0.63370567 
H   -4.39789221   2.84411993   1.11525890 
C   -0.44425375   1.01914344   2.60974483 
C    0.84560464   0.22218544   2.38632904 
H   -0.89401530   0.66567552   3.53884100 
H   -0.16576960   2.03836552   2.77671868 
C    1.59795898   0.65461743   1.16199965 
H    0.65043566  -0.83940648   2.35542644 
H    1.47677099   0.38175871   3.27147693 
C    1.27745997   0.10997858  -0.09370354 
C    2.01539806   0.53304843  -1.19721116 
C    2.99192955   1.51722045  -1.08617956 
C    2.62989528   1.59099255   1.26738900 
C    3.29708283   2.06191594   0.14374554 
H    1.86507944   0.07370251  -2.15846357 
H    3.54919345   1.81733006  -1.96963916 
H    2.94394522   1.92684568   2.25035062 
H    4.05273479   2.83042267   0.23739048 
Pd  -0.11885293  -1.35289789  -0.14329819 
Br  -1.64362309  -3.49754840   0.15002475 
P    1.56933038  -2.97644682  -0.40116381 
H    1.82933832  -3.73315018   0.75790616 
C   -0.11971970  -1.87102434  -3.67798584 
O    1.03325783  -1.73470267  -4.18853539 
O   -0.68077158  -3.04194693  -3.19796591 
O   -0.94790131  -0.82678530  -3.52904367 
H    2.88411297  -2.62124247  -0.67223402 
H    1.44542870  -4.05814680  -1.28089285 
H   -0.45606564  -0.00006062  -3.66779364 
*
