! EnGrad PBEh-3c
%output 
xyzfile=True 
end 
%scf 
maxiter 250 
end
%output
Print[P_Hirshfeld] = 1
end
% maxcore
4000
*xyz -1 1
C   -1.65647584   0.01920365   0.50921845 
C   -1.56986507   0.99168598   1.54781757 
C   -2.91529172   0.09293888  -0.18571616 
C   -3.87720610   1.08962939  -0.00889079 
C   -3.67589729   2.06065106   0.95828081 
C   -2.54692068   1.99066652   1.75203619 
H   -1.47940350  -3.10794270  -2.36871424 
H   -3.14061909  -0.66260187  -0.92706082 
H   -2.46663261   2.66865053   2.58464282 
H   -4.77348965   1.10042817  -0.61038401 
H   -4.41137225   2.83460461   1.12917890 
C   -0.44367632   1.02665729   2.60181816 
C    0.84427975   0.22603277   2.38006907 
H   -0.89023783   0.67874325   3.53460657 
H   -0.16239351   2.05195477   2.76181825 
C    1.60345418   0.65154543   1.15543375 
H    0.64443475  -0.83763677   2.34807911 
H    1.47305433   0.38518790   3.26485860 
C    1.27617032   0.11228000  -0.10092162 
C    2.02634977   0.52806108  -1.20138673 
C    3.00294958   1.51200598  -1.08875601 
C    2.63198221   1.58983330   1.26411706 
C    3.30742559   2.05585332   0.14364167 
H    1.87760064   0.06580675  -2.16273610 
H    3.56545394   1.80713045  -1.96841464 
H    2.94713385   1.92328650   2.24827486 
H    4.06191247   2.82574041   0.23770888 
Pd  -0.14454253  -1.34088421  -0.12959507 
Br  -1.64052203  -3.49455753   0.13536644 
P    1.56858239  -2.97641133  -0.39627034 
H    1.81797573  -3.73084252   0.76806295 
C   -0.11557429  -1.87119186  -3.68477147 
O    1.02092418  -1.73995454  -4.17471459 
O   -0.71150302  -3.03209124  -3.15944989 
O   -0.94108396  -0.81318147  -3.53318956 
H    2.88797956  -2.62646626  -0.65974940 
H    1.44438948  -4.06005615  -1.27508407 
H   -0.44194705   0.00898945  -3.68463645 
*
