! EnGrad PBEh-3c
%output 
xyzfile=True 
end 
%scf 
maxiter 250 
end
%output
Print[P_Hirshfeld] = 1
end
% maxcore
4000
*xyz -1 1
C   -1.65142489   0.02350862   0.49505462 
C   -1.56941093   0.98868230   1.54330543 
C   -2.91638909   0.08171713  -0.17580611 
C   -3.88981792   1.07016435   0.01249289 
C   -3.69198109   2.05009460   0.97371094 
C   -2.55482730   1.98403887   1.74928798 
H   -1.43058600  -3.06526005  -2.41760299 
H   -3.15303302  -0.67309674  -0.91752616 
H   -2.46290775   2.68003848   2.58155539 
H   -4.80046807   1.07484174  -0.58079746 
H   -4.42866467   2.82281134   1.14669764 
C   -0.44438763   1.03350619   2.58872631 
C    0.84262877   0.23249269   2.37228804 
H   -0.88544914   0.69570910   3.52986248 
H   -0.15772743   2.07002314   2.74293608 
C    1.60980665   0.64881705   1.14668077 
H    0.63652156  -0.83563567   2.33915755 
H    1.46871218   0.38925234   3.25666592 
C    1.27342656   0.11429787  -0.10820579 
C    2.03893105   0.52199597  -1.20548660 
C    3.01749040   1.50458504  -1.09232693 
C    2.63527911   1.58747724   1.26013406 
C    3.31958545   2.04834143   0.14361523 
H    1.89323930   0.05586465  -2.16882642 
H    3.58588680   1.79460463  -1.96711202 
H    2.95072095   1.91909712   2.24559169 
H    4.07374682   2.81967011   0.23813557 
Pd  -0.17075315  -1.32791175  -0.11468957 
Br  -1.63689428  -3.49064210   0.11876426 
P    1.56369335  -2.97528666  -0.38907667 
H    1.80372023  -3.72769881   0.78037003 
C   -0.11384818  -1.86986340  -3.68245187 
O    0.99713014  -1.75226725  -4.15586470 
O   -0.73803637  -3.01221868  -3.12426813 
O   -0.92907973  -0.79905774  -3.54121240 
H    2.89398531  -2.63275692  -0.64426252 
H    1.44359658  -4.06254243  -1.26772094 
H   -0.42508117   0.01797299  -3.70557119 
*
