! EnGrad PBEh-3c
%output 
xyzfile=True 
end 
%scf 
maxiter 250 
end
%output
Print[P_Hirshfeld] = 1
end
% maxcore
4000
*xyz -1 1
C   -1.64862755   0.04107156   0.47001488 
C   -1.56608611   0.98395521   1.53115612 
C   -2.92000646   0.05803943  -0.15759009 
C   -3.91700708   1.02521957   0.05906168 
C   -3.72797640   2.02391623   1.00573135 
C   -2.56769294   1.96764730   1.74883015 
H   -1.34961780  -2.96286035  -2.49776273 
H   -3.17917833  -0.69698552  -0.89496319 
H   -2.45341793   2.70128343   2.57006552 
H   -4.85645142   1.01656258  -0.51328585 
H   -4.46733411   2.79675118   1.18566294 
C   -0.44506392   1.05070395   2.55855197 
C    0.83878945   0.24544050   2.35362362 
H   -0.87452994   0.73412375   3.51935576 
H   -0.14833982   2.10747494   2.69991568 
C    1.62143846   0.64398920   1.12795539 
H    0.61876582  -0.82948357   2.32013506 
H    1.45948356   0.39855688   3.23937289 
C    1.26562160   0.11800349  -0.12274649 
C    2.06365938   0.50770687  -1.21384627 
C    3.05010050   1.48607900  -1.09833176 
C    2.64478870   1.58145483   1.25156639 
C    3.34557404   2.03180758   0.14231245 
H    1.92741133   0.03435745  -2.18252684 
H    3.63139816   1.76756030  -1.96543246 
H    2.95703506   1.91075143   2.23934405 
H    4.10050466   2.80523059   0.23937729 
Pd  -0.22187117  -1.30196090  -0.08291619 
Br  -1.62960497  -3.48038482   0.08284622 
P    1.54890883  -2.97082961  -0.37205947 
H    1.77166173  -3.71976789   0.80665042 
C   -0.14133313  -1.86456516  -3.64974280 
O    0.95535758  -1.79090936  -4.12005204 
O   -0.74720864  -2.95913013  -3.09671303 
O   -0.90278136  -0.77066761  -3.56030972 
H    2.90735199  -2.64681503  -0.61006886 
H    1.44247537  -4.06758093  -1.25114174 
H   -0.38845817   0.03352157  -3.75179673 
*
