! EnGrad PBEh-3c
%output 
xyzfile=True 
end 
%scf 
maxiter 250 
end
%output
Print[P_Hirshfeld] = 1
end
% maxcore
4000
*xyz -1 1
C   -1.66708123   0.07719185   0.45467754 
C   -1.55603418   0.98754020   1.51754724 
C   -2.92546191   0.03676031  -0.14495474 
C   -3.94356661   0.97180034   0.10863141 
C   -3.76194917   1.99004258   1.04105639 
C   -2.57777391   1.94298397   1.74918727 
H   -1.38259052  -2.83215077  -2.46527991 
H   -3.20313177  -0.72376836  -0.87063164 
H   -2.43958810   2.71752616   2.55193736 
H   -4.90984818   0.94889767  -0.43739721 
H   -4.50945255   2.76701171   1.22731967 
C   -0.44430906   1.06728862   2.52268210 
C    0.83491655   0.26040655   2.33264225 
H   -0.86182726   0.77722936   3.50715578 
H   -0.13921703   2.14569108   2.65261155 
C    1.62889784   0.64305615   1.10868136 
H    0.59875600  -0.82094160   2.30151601 
H    1.45011716   0.40864277   3.22187206 
C    1.25339434   0.12115894  -0.13487143 
C    2.08272894   0.49113972  -1.22072971 
C    3.08596771   1.46011860  -1.10355522 
C    2.65879219   1.57113946   1.24191163 
C    3.37151356   2.01503016   0.14011234 
H    1.96302530   0.01221070  -2.19788963 
H    3.68054467   1.73892289  -1.96487153 
H    2.96042704   1.90413905   2.23244588 
H    4.13054330   2.78717944   0.24114265 
Pd  -0.25839996  -1.28030849  -0.05233140 
Br  -1.62465199  -3.46538607   0.04533914 
P    1.52522177  -2.96190059  -0.35171592 
H    1.73592832  -3.70912706   0.83290031 
C   -0.16440579  -1.85489055  -3.59218685 
O    0.88517923  -1.85921268  -4.07192988 
O   -0.60208774  -2.88770302  -3.22224573 
O   -0.88743078  -0.73720623  -3.57806377 
H    2.92031262  -2.66241516  -0.57366999 
H    1.44191758  -4.07100437  -1.23225786 
H   -0.35032492   0.03731765  -3.80105075 
*
