! EnGrad PBEh-3c
%output 
xyzfile=True 
end 
%scf 
maxiter 250 
end
%output
Print[P_Hirshfeld] = 1
end
% maxcore
4000
*xyz -1 1
Pt  -1.22669352  -1.00092467   0.62715755 
Cl  -0.29928549  -0.84436675   2.75044785 
Cl  -2.77665723  -2.53911504   1.18230242 
Cl  -1.93023036  -0.89857264  -1.58418240 
C    1.22101593   1.06653698  -0.62374355 
H    1.43755702   2.10692224  -0.39504757 
H    1.27686968   0.46857154   0.44892459 
H    2.01230594   0.63308337  -1.23285768 
H    0.28511803   1.00785659  -1.17299797 
*
