! EnGrad PBEh-3c
%output 
xyzfile=True 
end 
%scf 
maxiter 250 
end
%output
Print[P_Hirshfeld] = 1
end
% maxcore
4000
*xyz -1 1
Pt  -1.21831587  -1.00582476   0.61897299 
Cl  -0.30139765  -0.81582237   2.73325304 
Cl  -2.75071238  -2.48985150   1.18253344 
Cl  -1.88637468  -0.92358678  -1.58703569 
C    1.25238256   0.95493563  -0.41162948 
H    1.44696174   2.08469765  -0.35548276 
H    1.23603045   0.51691858   0.21217565 
H    1.97381928   0.65174842  -1.26122406 
H    0.24692626   1.02439980  -1.13045836 
*
