! EnGrad PBEh-3c
%output 
xyzfile=True 
end 
%scf 
maxiter 250 
end
%output
Print[P_Hirshfeld] = 1
end
% maxcore
4000
*xyz -1 1
Pt  -1.22316597  -1.00298793   0.62371130 
Cl  -0.30017485  -0.83234766   2.74320769 
Cl  -2.76573272  -2.51837181   1.18239970 
Cl  -1.91176420  -0.90910525  -1.58538383 
C    1.23422337   1.01954537  -0.53442940 
H    1.44151703   2.09756421  -0.37838815 
H    1.25967364   0.48892886   0.34923751 
H    1.99610049   0.64094260  -1.24480181 
H    0.26903675   1.01482238  -1.15508596 
*
