! EnGrad PBEh-3c
%output 
xyzfile=True 
end 
%scf 
maxiter 250 
end
%output
Print[P_Hirshfeld] = 1
end
% maxcore
4000
*xyz -1 1
Pt  -1.22290767  -1.00595906   0.62012871 
Cl  -0.30194647  -0.82299127   2.73168611 
Cl  -2.75542467  -2.50005323   1.18495329 
Cl  -1.89530951  -0.91801256  -1.58377729 
C    1.23095007   1.03620070  -0.56321773 
H    1.44576479   2.07202665  -0.35854429 
H    1.23713390   0.47795050   0.31118547 
H    1.97546518   0.65010318  -1.23872988 
H    0.28557709   1.00827485  -1.10238365 
*
