! EnGrad PBEh-3c
%output 
xyzfile=True 
end 
%scf 
maxiter 250 
end
%output
Print[P_Hirshfeld] = 1
end
% maxcore
4000
*xyz -1 1
Pt  -1.21482193  -1.00143263   0.61666160 
Cl  -0.30094041  -0.81384505   2.72893441 
Cl  -2.75375180  -2.49160128   1.18609897 
Cl  -1.88388165  -0.92465374  -1.58774525 
C    1.22236169   1.04889169  -0.59254242 
H    1.44837571   2.06391238  -0.34272007 
H    1.23259016   0.45131821   0.32396589 
H    1.96650278   0.65190647  -1.24417092 
H    0.28259855   1.01293378  -1.08706371 
*
