! EnGrad PBEh-3c
%output 
xyzfile=True 
end 
%scf 
maxiter 250 
end
%output
Print[P_Hirshfeld] = 1
end
% maxcore
4000
*xyz -1 1
C   -2.59931718  -0.26837437   0.85936130 
C   -2.01419093   0.90976852   1.33196253 
C   -3.90481840  -0.57242223   1.24583114 
C   -4.74439031   0.44079039   1.69012194 
C   -4.15847719   1.59162456   2.18986295 
C   -2.77433840   1.69935146   2.18881454 
H   -2.49915303  -1.27930443  -0.67472707 
H   -4.36259246  -1.52139700   0.99298859 
H   -2.33643836   2.57100001   2.66313944 
H   -5.80695016   0.25938960   1.80322000 
H   -4.77863566   2.32742886   2.68667124 
C   -0.66695349   1.39614432   0.89680714 
C    0.48433537   0.56562724   1.45097321 
H   -0.48592112   2.44946945   1.15136358 
H   -0.68507224   1.43473799  -0.19652236 
C    1.71856622   0.64154696   0.59654292 
H    0.18703159  -0.47911656   1.56897892 
H    0.70661906   0.90891617   2.46771771 
C    1.85360966  -0.13724177  -0.56214329 
C    2.97091206   0.05858098  -1.36872427 
C    3.92051883   1.02815753  -1.06801563 
C    2.82641079   1.37058151   1.02792343 
C    3.82376111   1.72315351   0.12757639 
H    3.10271336  -0.51793827  -2.27498190 
H    4.72574509   1.23304085  -1.76385893 
H    2.76815011   1.87208012   1.98880167 
H    4.50018356   2.54345768   0.33478775 
Pd   0.50704881  -1.47969589  -1.06066656 
Br  -1.22593249  -3.71868144  -1.42022090 
P    1.26181770  -2.96677248   0.31411761 
H    0.42482137  -3.38183039   1.36117313 
C    0.63758721  -0.99715223  -3.94835216 
O    1.62870563  -1.66833043  -4.15099215 
O   -0.34185392  -1.24574908  -3.17660347 
O    0.24822348  -0.00361226  -4.78722322 
H    2.41301746  -2.69658224   1.08178675 
H    1.69585231  -4.21000707  -0.17071390 
H    0.97940837   0.11936391  -5.39675791 
*
