! EnGrad PBEh-3c
%output 
xyzfile=True 
end 
%scf 
maxiter 250 
end
%output
Print[P_Hirshfeld] = 1
end
% maxcore
4000
*xyz -1 1
C   -2.65279021  -0.12688067   0.60895908 
C   -2.04438087   0.98653097   1.21753440 
C   -3.95216313  -0.52650795   0.90755388 
C   -4.77588401   0.37095813   1.56992185 
C   -4.22393979   1.51588792   2.08321766 
C   -2.86617541   1.73817128   2.01080029 
H   -2.07859882  -0.71350893  -0.09978052 
H   -4.28842780  -1.53361089   0.63489042 
H   -2.39545842   2.54862311   2.50470400 
H   -5.83038874   0.20133619   1.54680325 
H   -4.83327862   2.29027149   2.48122803 
C   -0.59295885   1.38404226   1.05401485 
C    0.54495782   0.47146676   1.58541122 
H   -0.52121326   2.31897873   1.58571919 
H   -0.40546834   1.58399143  -0.00014040 
C    1.73170663   0.54759396   0.64873451 
H    0.18084963  -0.55223803   1.67655070 
H    0.84717391   0.79720627   2.59306124 
C    1.76671722  -0.17974946  -0.57367054 
C    2.85442149   0.09599984  -1.40774933 
C    3.82440735   1.05509066  -1.10294884 
C    2.78917556   1.40638781   0.99865730 
C    3.80772177   1.72489827   0.10860653 
H    2.95620752  -0.45930569  -2.33188447 
H    4.61288715   1.26773975  -1.81343508 
H    2.83242718   1.86111794   1.98648869 
H    4.58705902   2.44567154   0.37300943 
Pd   0.40408946  -1.71189934  -1.11472436 
Br  -1.31085570  -3.63173059  -0.99048812 
P    1.35095547  -2.98987809   0.34202069 
H    0.64641854  -3.51050746   1.41916963 
C    0.53416985  -1.07916124  -3.93123828 
O    1.60945612  -1.59614797  -4.19552918 
O   -0.31272077  -1.38714156  -3.03133693 
O    0.08917739  -0.02241488  -4.66739811 
H    2.58787889  -2.68892065   0.91306628 
H    1.67486780  -4.14606434  -0.36843880 
H    0.84331965   0.22046935  -5.20277692 
*
