! EnGrad PBEh-3c
%output 
xyzfile=True 
end 
%scf 
maxiter 250 
end
%output
Print[P_Hirshfeld] = 1
end
% maxcore
4000
*xyz -1 1
C   -2.61735366  -0.13818434   0.61044406 
C   -2.05373197   0.98229882   1.22009425 
C   -3.93123669  -0.51983453   0.88872599 
C   -4.78918265   0.37180900   1.53320482 
C   -4.24174944   1.51740246   2.06252972 
C   -2.88070032   1.75881066   2.00251667 
H   -2.02371980  -0.70705982  -0.08955759 
H   -4.27956013  -1.50949826   0.57448050 
H   -2.39689174   2.58503362   2.50039619 
H   -5.85933983   0.18639053   1.54491741 
H   -4.84227384   2.27964671   2.47428497 
C   -0.59264358   1.38428348   1.07055822 
C    0.53919872   0.46020653   1.59252300 
H   -0.51651920   2.31278855   1.62494372 
H   -0.36823559   1.60782861   0.01999133 
C    1.72682680   0.53739714   0.65560541 
H    0.18406348  -0.56745550   1.69129495 
H    0.85740784   0.77635607   2.59549587 
C    1.76422548  -0.18164799  -0.56910987 
C    2.84500866   0.09748677  -1.41075944 
C    3.80806639   1.06050690  -1.11395552 
C    2.78382494   1.39821124   0.99447949 
C    3.80142314   1.71102587   0.10774337 
H    2.93857379  -0.44875562  -2.34246689 
H    4.59898889   1.26431406  -1.81925197 
H    2.82173970   1.85952976   1.97514864 
H    4.58249019   2.42451267   0.37031486 
Pd   0.41477115  -1.69864920  -1.09960708 
Br  -1.32390739  -3.62729413  -0.95443331 
P    1.35904275  -2.99557054   0.34222751 
H    0.67295031  -3.52884417   1.43651854 
C    0.52854813  -1.09535558  -3.93338736 
O    1.59364166  -1.57860565  -4.18889656 
O   -0.30784381  -1.38850184  -3.01369223 
O    0.07621820  -0.01931778  -4.65493541 
H    2.61021485  -2.68601501   0.89746349 
H    1.68023171  -4.14940344  -0.38107184 
H    0.83251704   0.23352902  -5.19519854 
*
