! EnGrad PBEh-3c
%output 
xyzfile=True 
end 
%scf 
maxiter 250 
end
%output
Print[P_Hirshfeld] = 1
end
% maxcore
4000
*xyz -1 1
C   -2.58366637  -0.15340839   0.61081008 
C   -2.05103886   0.97649412   1.22571634 
C   -3.91068599  -0.51504343   0.85998059 
C   -4.79838368   0.36570678   1.48940329 
C   -4.25318190   1.52077448   2.03703313 
C   -2.88877504   1.77984567   1.98758279 
H   -1.96779892  -0.70485284  -0.07637556 
H   -4.26621748  -1.47789893   0.50710718 
H   -2.40932310   2.62503408   2.49348628 
H   -5.87949160   0.17047515   1.54021333 
H   -4.86666433   2.27822234   2.47339893 
C   -0.59421721   1.38645030   1.09116703 
C    0.53618855   0.44540623   1.60057604 
H   -0.50815468   2.30959345   1.67003620 
H   -0.33227943   1.63670125   0.05027180 
C    1.72393148   0.52196709   0.66294858 
H    0.18671765  -0.58328509   1.70657615 
H    0.86734611   0.75303298   2.59950970 
C    1.76050117  -0.18514505  -0.56569561 
C    2.83143182   0.09897920  -1.41619492 
C    3.79156781   1.06347624  -1.12429574 
C    2.77436669   1.39114349   0.99080077 
C    3.79421432   1.69403139   0.10515272 
H    2.91705560  -0.43670235  -2.35372622 
H    4.58396939   1.26164539  -1.82917639 
H    2.80838211   1.85830112   1.96640390 
H    4.57554250   2.40074500   0.36704271 
Pd   0.42318772  -1.68314969  -1.08015034 
Br  -1.33809706  -3.62045813  -0.91454890 
P    1.36856577  -3.00053278   0.34178306 
H    0.70628707  -3.54918690   1.45458613 
C    0.50231765  -1.09300614  -3.92371802 
O    1.59889380  -1.57263002  -4.19082269 
O   -0.30599257  -1.39135736  -2.99452459 
O    0.06356841  -0.01825423  -4.64127001 
H    2.63541111  -2.68480616   0.87934757 
H    1.68726298  -4.15436698  -0.39382166 
H    0.81737051   0.24725959  -5.18645100 
*
