! EnGrad PBEh-3c
%output 
xyzfile=True 
end 
%scf 
maxiter 250 
end
%output
Print[P_Hirshfeld] = 1
end
% maxcore
4000
*xyz -1 1
C   -2.61709119  -0.31278048   0.77484386 
C   -1.99918081   0.89570677   1.32737871 
C   -3.92019706  -0.56255816   1.20071747 
C   -4.73368006   0.42467968   1.70158621 
C   -4.16160677   1.58480457   2.19930810 
C   -2.80345030   1.72950709   2.17289089 
H   -2.47876582  -1.21169740  -0.60160095 
H   -4.34377173  -1.52327559   0.98096261 
H   -2.34094200   2.57184659   2.66308780 
H   -5.80627996   0.26282872   1.76914648 
H   -4.78437080   2.33194739   2.66652140 
C   -0.65838999   1.40725788   0.90340311 
C    0.50407712   0.55551397   1.46631463 
H   -0.48811358   2.44549793   1.19012165 
H   -0.67068766   1.44076988  -0.17915649 
C    1.74243115   0.61049565   0.62483568 
H    0.18436502  -0.47820091   1.57284210 
H    0.71661109   0.90509104   2.47689930 
C    1.84872365  -0.12402598  -0.56543037 
C    2.96923297   0.05858066  -1.37383519 
C    3.91049156   1.03723013  -1.06606689 
C    2.80376008   1.41079308   1.01461890 
C    3.83710490   1.71180074   0.12755791 
H    3.09162326  -0.51766068  -2.27689629 
H    4.71661048   1.23892688  -1.76939273 
H    2.78091819   1.86561389   1.99539931 
H    4.50716252   2.53720468   0.34100749 
Pd   0.45112993  -1.51259180  -1.11902967 
Br  -1.22796314  -3.70524530  -1.38033760 
P    1.27573445  -2.97171691   0.33160113 
H    0.44190322  -3.38944846   1.35950974 
C    0.54000044  -1.05177318  -3.95708422 
O    1.66999669  -1.65243257  -4.15281135 
O   -0.31092194  -1.25769331  -3.12096565 
O    0.26679390   0.01583493  -4.78984191 
H    2.42668760  -2.69808550   1.06986811 
H    1.69250692  -4.20537926  -0.19111734 
H    0.96625810   0.13522443  -5.38512417 
*
