! EnGrad PBEh-3c
%output 
xyzfile=True 
end 
%scf 
maxiter 250 
end
%output
Print[P_Hirshfeld] = 1
end
% maxcore
4000
*xyz -1 1
C   -2.61950794  -0.32451104   0.72578969 
C   -2.00459818   0.88331570   1.32163977 
C   -3.92431974  -0.56086404   1.17030295 
C   -4.73124471   0.41895271   1.70737474 
C   -4.16990565   1.58015563   2.20225085 
C   -2.80638431   1.73546710   2.15526232 
H   -2.46636258  -1.16418548  -0.55001074 
H   -4.33483302  -1.52649105   0.97069843 
H   -2.34477762   2.57469724   2.66286883 
H   -5.80455565   0.26430052   1.74662305 
H   -4.78996831   2.33501778   2.65312474 
C   -0.65017701   1.40856299   0.91373263 
C    0.51394243   0.55079490   1.47482034 
H   -0.48877463   2.44470071   1.21745583 
H   -0.66006720   1.44687064  -0.16923581 
C    1.75342711   0.59464650   0.63861453 
H    0.18254438  -0.47894707   1.57643188 
H    0.72414920   0.90207628   2.48510663 
C    1.84243338  -0.12179210  -0.57071328 
C    2.96487410   0.06081098  -1.37459139 
C    3.90706237   1.03969259  -1.06972219 
C    2.79640166   1.43101141   1.00731118 
C    3.84124293   1.70976370   0.13171195 
H    3.08366327  -0.51729715  -2.27954554 
H    4.70945265   1.24285301  -1.77225575 
H    2.78920014   1.86268817   2.00040784 
H    4.51202542   2.53273893   0.34439048 
Pd   0.42616590  -1.53432020  -1.14167306 
Br  -1.23056984  -3.69727267  -1.35385809 
P    1.28111923  -2.97071588   0.33355806 
H    0.45287444  -3.39581396   1.36084560 
C    0.54593258  -1.08313498  -3.98401389 
O    1.65979930  -1.63193524  -4.15003777 
O   -0.31551155  -1.27034959  -3.08225863 
O    0.25374150   0.01892143  -4.77375760 
H    2.43824204  -2.69868334   1.06232009 
H    1.69056457  -4.20229572  -0.20477604 
H    0.97006775   0.14443594  -5.38345014 
*
