! EnGrad PBEh-3c
%output 
xyzfile=True 
end 
%scf 
maxiter 250 
end
%output
Print[P_Hirshfeld] = 1
end
% maxcore
4000
*xyz -1 1
C   -2.61876979  -0.32395311   0.68271717 
C   -2.01624488   0.87210065   1.31073327 
C   -3.92188981  -0.56031387   1.13925437 
C   -4.73134940   0.41450564   1.70926334 
C   -4.17779037   1.57569455   2.20132345 
C   -2.80204218   1.73087594   2.13429616 
H   -2.45398084  -1.11190106  -0.49313539 
H   -4.32932714  -1.53220581   0.95707007 
H   -2.34977183   2.57776908   2.66059606 
H   -5.80240180   0.26462839   1.72377348 
H   -4.79782945   2.33864444   2.63951765 
C   -0.64196897   1.40468818   0.92876354 
C    0.52101482   0.54698787   1.48331741 
H   -0.48900378   2.44427122   1.24742212 
H   -0.64763394   1.45529593  -0.15896594 
C    1.76073527   0.58356693   0.64564696 
H    0.18083371  -0.48091299   1.58126338 
H    0.73292128   0.89811112   2.49534159 
C    1.83274588  -0.12469157  -0.57625484 
C    2.95831659   0.06484247  -1.37518208 
C    3.90478815   1.04014760  -1.07381905 
C    2.79429451   1.44375874   1.00335548 
C    3.84197849   1.71159737   0.13522376 
H    3.07488284  -0.51592883  -2.28249456 
H    4.70207642   1.24699645  -1.77542808 
H    2.79749676   1.86093445   2.00534563 
H    4.51773590   2.52830028   0.34743017 
Pd   0.41172460  -1.55663305  -1.14994105 
Br  -1.23486280  -3.69058860  -1.32621564 
P    1.28362525  -2.96669040   0.32836176 
H    0.46448060  -3.40368638   1.36419816 
C    0.56085195  -1.10057247  -3.99408422 
O    1.63986301  -1.61606728  -4.15053047 
O   -0.31645350  -1.28321958  -3.06733792 
O    0.23581894   0.01326326  -4.75567976 
H    2.45201367  -2.69912023   1.05417174 
H    1.68870060  -4.19874700  -0.21894602 
H    0.97019676   0.15273453  -5.37669442 
*
