! EnGrad PBEh-3c
%output 
xyzfile=True 
end 
%scf 
maxiter 250 
end
%output
Print[P_Hirshfeld] = 1
end
% maxcore
4000
*xyz -1 1
C   -2.62095275  -0.31759479   0.59842122 
C   -2.03257590   0.85474777   1.28116648 
C   -3.91551649  -0.55706748   1.07541519 
C   -4.72866071   0.40198728   1.70546633 
C   -4.18747921   1.56651746   2.19440922 
C   -2.79918785   1.72005154   2.09475060 
H   -2.42588211  -0.99684463  -0.36981737 
H   -4.31901772  -1.54460340   0.92380726 
H   -2.36215080   2.57976920   2.64993892 
H   -5.79918360   0.26340857   1.67481937 
H   -4.81556941   2.34608706   2.60961172 
C   -0.62793588   1.39623092   0.96083168 
C    0.53463863   0.53776061   1.50372020 
H   -0.48982277   2.43978070   1.31392353 
H   -0.61857038   1.47571586  -0.13272570 
C    1.77266661   0.56491967   0.65397231 
H    0.17795604  -0.48597274   1.59310628 
H    0.75303314   0.88787819   2.51815275 
C    1.81130138  -0.13283389  -0.58432412 
C    2.94271822   0.07321885  -1.37916671 
C    3.89782886   1.04175160  -1.07752282 
C    2.79129707   1.46191717   0.99951131 
C    3.84229280   1.71639574   0.13632153 
H    3.05524007  -0.51100682  -2.28789077 
H    4.68721544   1.25594386  -1.78368209 
H    2.81501387   1.85788425   2.01466914 
H    4.53116025   2.51947194   0.35383351 
Pd   0.38828730  -1.60245473  -1.15827788 
Br  -1.24588108  -3.67768160  -1.26564359 
P    1.28903003  -2.95879861   0.31690472 
H    0.49160371  -3.42121560   1.37128993 
C    0.55105789  -1.10795719  -3.99093777 
O    1.63297285  -1.60658247  -4.16055992 
O   -0.31335915  -1.31330903  -3.05400328 
O    0.20783664  -0.00206594  -4.72816754 
H    2.48123046  -2.70026192   1.03382888 
H    1.68453175  -4.19007981  -0.24988155 
H    0.95552296   0.16956531  -5.34950607 
*
