! EnGrad PBEh-3c
%output 
xyzfile=True 
end 
%scf 
maxiter 250 
end
%output
Print[P_Hirshfeld] = 1
end
% maxcore
4000
*xyz -1 1
C   -2.63009088  -0.27819931   0.54101688 
C   -2.04408572   0.84536649   1.23485689 
C   -3.90886137  -0.55623231   1.00691034 
C   -4.72368469   0.38590593   1.68785798 
C   -4.19415886   1.55560199   2.17755841 
C   -2.79768442   1.70235338   2.05553871 
H   -2.38336410  -0.86841561  -0.23525556 
H   -4.31131554  -1.55662139   0.87575411 
H   -2.37790752   2.57254984   2.62469402 
H   -5.79584769   0.25735934   1.62226456 
H   -4.83454653   2.35090893   2.57448167 
C   -0.61650346   1.38553461   0.99616112 
C    0.54633918   0.52506383   1.52864171 
H   -0.49285632   2.42593040   1.39191027 
H   -0.57918420   1.50190957  -0.09747583 
C    1.77537449   0.55504852   0.65218257 
H    0.17571848  -0.49472692   1.60971282 
H    0.77813450   0.87271986   2.54551404 
C    1.78861614  -0.14801710  -0.58983051 
C    2.91890397   0.08243730  -1.38539143 
C    3.88831783   1.04182276  -1.07980144 
C    2.79331961   1.46369791   1.00077282 
C    3.83695476   1.72676348   0.13257035 
H    3.03121679  -0.50232774  -2.29470659 
H    4.67047148   1.26525195  -1.79356823 
H    2.83256573   1.85728262   2.02160936 
H    4.54901791   2.50895934   0.36083365 
Pd   0.37970057  -1.65230356  -1.14724728 
Br  -1.26074725  -3.66412267  -1.19466300 
P    1.29564727  -2.95203729   0.30398213 
H    0.52611795  -3.44233034   1.37979642 
C    0.57483678  -1.09966073  -3.97431936 
O    1.60899781  -1.60086646  -4.17517200 
O   -0.32106317  -1.34742630  -3.05935237 
O    0.16989522  -0.02178274  -4.70317337 
H    2.51309490  -2.70079481   1.00601044 
H    1.67918556  -4.17758017  -0.28508562 
H    0.92904826   0.18331275  -5.30704672 
*
