! EnGrad PBEh-3c
%output 
xyzfile=True 
end 
%scf 
maxiter 250 
end
%output
Print[P_Hirshfeld] = 1
end
% maxcore
4000
*xyz -1 1
C   -2.65714815  -0.21500314   0.55963168 
C   -2.04183572   0.85029324   1.20376574 
C   -3.91565982  -0.55446778   0.96870106 
C   -4.71898021   0.37156142   1.67052971 
C   -4.19397380   1.54717883   2.16442381 
C   -2.80578275   1.69547716   2.03604172 
H   -2.33099474  -0.81332178  -0.18240077 
H   -4.30791454  -1.56072148   0.83817030 
H   -2.38590277   2.55840395   2.59960100 
H   -5.79402881   0.25043381   1.59471970 
H   -4.84176199   2.34935435   2.55296579 
C   -0.61294228   1.38105066   1.01023751 
C    0.55279886   0.51418921   1.54429713 
H   -0.49843527   2.40876575   1.43772747 
H   -0.54965715   1.51629534  -0.07432439 
C    1.77161794   0.55179019   0.64902390 
H    0.17450450  -0.50236458   1.62123411 
H    0.79370047   0.86134232   2.56070547 
C    1.77831032  -0.15779257  -0.59110381 
C    2.90277762   0.08651529  -1.39106951 
C    3.87944422   1.04231351  -1.07963870 
C    2.79250770   1.45830758   1.00164941 
C    3.83278599   1.73247354   0.12650465 
H    3.01611508  -0.49528873  -2.29972118 
H    4.66037348   1.26971519  -1.79934376 
H    2.84011772   1.85875658   2.02171130 
H    4.56186161   2.50060619   0.36603966 
Pd   0.37721039  -1.68277304  -1.14411921 
Br  -1.26921661  -3.65484959  -1.14899368 
P    1.30401188  -2.95394259   0.30662022 
H    0.54966106  -3.45528030   1.38449490 
C    0.55199153  -1.07991101  -3.94926776 
O    1.62730467  -1.61311555  -4.19106573 
O   -0.32013181  -1.36160327  -3.06246534 
O    0.15402324  -0.02650676  -4.69829648 
H    2.52940606  -2.69981602   0.98714291 
H    1.67558096  -4.16792291  -0.30563796 
H    0.90607854   0.18930397  -5.27772283 
*
