! EnGrad PBEh-3c
%output 
xyzfile=True 
end 
%scf 
maxiter 250 
end
%output
Print[P_Hirshfeld] = 1
end
% maxcore
4000
*xyz -1 1
C   -2.68380959  -0.15348256   0.60865371 
C   -2.03048993   0.88641211   1.19781674 
C   -3.94020491  -0.54839720   0.95927958 
C   -4.72048017   0.35905329   1.64612732 
C   -4.18924270   1.54020080   2.14820273 
C   -2.81887120   1.69564091   2.03041455 
H   -2.26843482  -0.80311805  -0.18046175 
H   -4.30590826  -1.55895469   0.80088757 
H   -2.39006946   2.53987935   2.57122011 
H   -5.79287185   0.24116969   1.58252377 
H   -4.84086485   2.34062789   2.53798147 
C   -0.61351626   1.37915997   1.01314126 
C    0.55351168   0.50461587   1.55438302 
H   -0.50605951   2.38668629   1.46670215 
H   -0.52234080   1.52706042  -0.05685562 
C    1.76065798   0.55561026   0.64342786 
H    0.17496027  -0.51101563   1.63165530 
H    0.80496679   0.85007254   2.56915364 
C    1.77612847  -0.16501030  -0.58763693 
C    2.89034596   0.08801623  -1.39620741 
C    3.86957831   1.04319912  -1.07969206 
C    2.79275924   1.44289651   1.00366367 
C    3.82711701   1.73564175   0.11892915 
H    3.00502496  -0.48804871  -2.30463486 
H    4.65285709   1.27059090  -1.80250795 
H    2.84080616   1.86116170   2.01601407 
H    4.57122375   2.49263589   0.36925016 
Pd   0.38408353  -1.69624194  -1.13777046 
Br  -1.27622022  -3.64943758  -1.11689115 
P    1.31448594  -2.96242994   0.31772960 
H    0.56884258  -3.46436975   1.38777364 
C    0.54826753  -1.06972873  -3.92872933 
O    1.62997030  -1.61850214  -4.19935650 
O   -0.31908289  -1.36570394  -3.06823059 
O    0.14520536  -0.02318629  -4.70230329 
H    2.53726510  -2.69783614   0.97110168 
H    1.67349461  -4.16008284  -0.31827384 
H    0.88440176   0.19042904  -5.25382610 
*
