! EnGrad PBEh-3c
%output 
xyzfile=True 
end 
%scf 
maxiter 250 
end
%output
Print[P_Hirshfeld] = 1
end
% maxcore
4000
*xyz -1 1
C   -2.68508321  -0.09648206   0.61157057 
C   -2.03370103   0.98304733   1.20251647 
C   -3.96877339  -0.53368231   0.90393603 
C   -4.76480917   0.36137140   1.58695583 
C   -4.20807571   1.51176693   2.09176727 
C   -2.85384049   1.72249705   2.00793978 
H   -2.10087338  -0.69950541  -0.08640007 
H   -4.29169894  -1.54836417   0.66404117 
H   -2.40153162   2.52043133   2.49955195 
H   -5.80603851   0.20979842   1.53742263 
H   -4.83727785   2.30360682   2.48204300 
C   -0.59469433   1.38003344   1.04946754 
C    0.55214709   0.47493776   1.58620697 
H   -0.52396203   2.32245425   1.57716804 
H   -0.42253738   1.57417296  -0.00400290 
C    1.73605635   0.55170222   0.64332531 
H    0.17800420  -0.54378160   1.67005330 
H    0.84524460   0.80749639   2.59733569 
C    1.76343476  -0.18262676  -0.57867359 
C    2.85438563   0.09691420  -1.40755129 
C    3.83344153   1.05044459  -1.09558010 
C    2.79152917   1.41161911   1.00170809 
C    3.81030429   1.73566698   0.10752104 
H    2.96235768  -0.46409676  -2.32617808 
H    4.61890008   1.27214963  -1.81269979 
H    2.84222851   1.86269702   1.99622021 
H    4.59363467   2.45712341   0.37633617 
Pd   0.39526509  -1.73106209  -1.12184616 
Br  -1.30498669  -3.63107184  -0.99939620 
P    1.34688559  -2.98438303   0.33994789 
H    0.63734652  -3.50297244   1.40940838 
C    0.52071971  -1.06097767  -3.90732072 
O    1.62763076  -1.61373597  -4.20925412 
O   -0.30911681  -1.38884232  -3.05424573 
O    0.09212413  -0.02906549  -4.67181216 
H    2.57983691  -2.69127449   0.91741020 
H    1.67057602  -4.14170254  -0.36698662 
H    0.84339181   0.21464150  -5.19945776 
*
