! EnGrad PBEh-3c
%output 
xyzfile=True 
end 
%scf 
maxiter 250 
end
%output
Print[P_Hirshfeld] = 1
end
% maxcore
4000
*xyz 1 1
Sc   1.54807635  -1.12200751  -1.62359858 
C    0.32328167  -0.55544135   0.21155581 
N   -0.46755722  -1.36013378   0.93822587 
C   -0.78729940  -0.77021905   2.12375644 
C   -0.12116019   0.40263097   2.16507048 
N    0.57483357   0.50708760   1.00034454 
C    1.42469033   1.62652929   0.66740758 
H    1.48486399   2.39807392   1.43190951 
H    1.03733848   2.12088479  -0.21965618 
H    2.45046274   1.31323313   0.48265193 
C   -0.96569481  -2.66304583   0.54729372 
H   -0.58905448  -2.93390348  -0.43625409 
H   -2.05252892  -2.64455339   0.51050661 
H   -0.64276157  -3.41985427   1.25924287 
H   -1.43698371  -1.22278029   2.85261895 
H   -0.12412807   1.14240600   2.94612198 
C   -0.22516715   1.68283863  -2.86955461 
H   -0.92241773   1.71483920  -3.71809861 
H    0.34174379   2.61468389  -2.93473692 
H   -0.84916077   1.72644739  -1.97167064 
H   -0.00135266  -0.55770432  -3.36314243 
*
