! EnGrad PBEh-3c
%output 
xyzfile=True 
end 
%scf 
maxiter 250 
end
%output
Print[P_Hirshfeld] = 1
end
% maxcore
4000
*xyz 1 1
Sc   1.39049882  -0.97554580  -1.79706984 
C    0.41384939  -0.59541427   0.24776118 
N   -0.47479658  -1.34804230   0.92615704 
C   -0.79744950  -0.76882997   2.12799566 
C   -0.13975928   0.41141279   2.16974386 
N    0.57236138   0.51191277   0.99814173 
C    1.42896227   1.62903206   0.63066018 
H    1.48126701   2.33682181   1.45515357 
H    1.02605262   2.13856108  -0.25430276 
H    2.44935335   1.28067060   0.43683803 
C   -0.97218901  -2.65671107   0.54942981 
H   -0.59437148  -2.94130020  -0.42980894 
H   -2.05986637  -2.65104898   0.48882498 
H   -0.66280500  -3.41199719   1.27376116 
H   -1.45985384  -1.22102297   2.85306432 
H   -0.12567455   1.17714866   2.93172109 
C   -0.28896711   1.67340528  -2.84978941 
H   -0.94328640   1.63428010  -3.73142032 
H    0.39167195   2.51503804  -2.92170060 
H   -0.84730511   1.64582510  -1.92041174 
H    0.21393960  -0.38077157  -3.18458546 
*
