! EnGrad PBEh-3c
%output 
xyzfile=True 
end 
%scf 
maxiter 250 
end
%output
Print[P_Hirshfeld] = 1
end
% maxcore
4000
*xyz 1 1
Sc   1.36810491  -0.93772451  -1.81707705 
C    0.41492177  -0.60191898   0.24236569 
N   -0.46660681  -1.35749334   0.93704127 
C   -0.80533319  -0.75881620   2.12519374 
C   -0.14042805   0.41931154   2.16278929 
N    0.58116325   0.50436685   1.00584114 
C    1.42583497   1.62383473   0.61835896 
H    1.48568406   2.32519554   1.45725622 
H    1.02829415   2.14002482  -0.24853739 
H    2.44129321   1.27530350   0.42181261 
C   -0.97380218  -2.65745526   0.54892386 
H   -0.59203705  -2.94479522  -0.42710302 
H   -2.06095935  -2.64909532   0.48489295 
H   -0.66941465  -3.40801024   1.27618412 
H   -1.46224804  -1.21671707   2.84494294 
H   -0.12892660   1.18118577   2.92267638 
C   -0.29409485   1.62545668  -2.85076234 
H   -0.95080763   1.61641607  -3.72389505 
H    0.40201848   2.48318441  -2.91952749 
H   -0.84423289   1.62574168  -1.91778465 
H    0.24435288  -0.28352867  -3.14504807 
*
