! EnGrad PBEh-3c
%output 
xyzfile=True 
end 
%scf 
maxiter 250 
end
%output
Print[P_Hirshfeld] = 1
end
% maxcore
4000
*xyz 1 1
Sc   1.28446639  -0.76803104  -1.89052141 
C    0.40129012  -0.61303825   0.23320307 
N   -0.44390308  -1.37460088   0.95698370 
C   -0.81870847  -0.74066842   2.11812994 
C   -0.14465480   0.43248650   2.14561834 
N    0.60365502   0.47839782   1.00567356 
C    1.42280331   1.60166417   0.61698440 
H    1.49610435   2.29805287   1.45145840 
H    1.02523227   2.14263196  -0.23970685 
H    2.42541582   1.26348888   0.38587654 
C   -0.97373116  -2.65496186   0.55252285 
H   -0.58257038  -2.95019763  -0.42042698 
H   -2.06168745  -2.63800854   0.47776877 
H   -0.68373080  -3.40729983   1.28049073 
H   -1.47124251  -1.20149238   2.82549412 
H   -0.13593516   1.19622362   2.90381790 
C   -0.24572997   1.45837976  -2.83088753 
H   -0.95102832   1.54365259  -3.69247126 
H    0.42283868   2.33977962  -2.91389078 
H   -0.83964714   1.57349099  -1.92504630 
H    0.27774702   0.02854756  -3.04811949 
*
