39
autodE path point 0. E = -1288.434573760017 charge = 1 mult = 1 
Ir    0.42775  -0.66288   1.12667
C     0.11656  -2.53642   2.13726
C     1.42343  -2.04478   2.46843
C     1.31798  -2.37167   0.17606
C     0.05481  -2.74967   0.74025
C     2.15344  -1.96168   1.25419
N    -0.82601   0.10228  -0.35707
C    -2.26896   0.27663  -0.01032
C    -2.71332   1.72021  -0.19588
H    -3.73982   1.83283   0.15143
H    -2.68938   2.03315  -1.24081
H    -2.09511   2.40877   0.37855
C    -3.14440  -0.70623  -0.77791
H    -2.35715   0.03871   1.04729
H    -4.16081  -0.66499  -0.38849
H    -3.20222  -0.48166  -1.84364
H    -2.79200  -1.73187  -0.66588
C    -0.50771   0.29551  -1.58302
C     0.77965   0.19398  -2.21900
H    -1.32103   0.54031  -2.26655
C     2.06614   0.39977  -1.77236
C     3.02696   0.21182  -2.78373
S     0.77693  -0.19861  -3.90554
C     2.46872  -0.12867  -3.98443
H     2.31603   0.73932  -0.78027
H     4.08899   0.34019  -2.63884
H     2.97990  -0.33812  -4.91130
H    -0.69134  -2.70067   2.83617
H     1.79243  -1.81938   3.45724
H     3.16456  -1.59159   1.15608
O     1.27529   1.26690   1.19797
O    -0.44848   0.81143   2.36590
C     0.39525   1.67983   2.00857
C     0.37338   3.07522   2.51660
H     0.66772   3.77637   1.73831
H     1.09417   3.17203   3.33072
H    -0.60800   3.33605   2.90443
H     1.60480  -2.43844  -0.86230
H    -0.79913  -3.12398   0.19523
39
autodE path point 1. E = -1288.407909700643 charge = 1 mult = 1 
Ir    0.47096  -0.65641   1.02612
C    -0.07328  -2.64388   1.76552
C     0.95814  -2.08972   2.59733
C     1.79710  -2.35498   0.46395
C     0.48712  -2.85393   0.46650
C     2.09215  -1.86560   1.79428
N    -0.94454   0.02517  -0.41652
C    -2.38460   0.11024   0.01897
C    -2.83521   1.55352   0.21809
H    -3.86456   1.54241   0.57769
H    -2.82949   2.11912  -0.71822
H    -2.23340   2.06251   0.96912
C    -3.32998  -0.62662  -0.92819
H    -2.42595  -0.39633   0.98907
H    -4.31404  -0.67169  -0.46198
H    -3.47497  -0.10911  -1.87967
H    -3.01192  -1.65135  -1.12530
C    -0.64624   0.30282  -1.63754
C     0.66781   0.24243  -2.24457
H    -1.47653   0.54605  -2.30886
C     1.94473   0.38670  -1.73718
C     2.93877   0.07891  -2.67965
S     0.73615  -0.01733  -3.95999
C     2.43277  -0.08319  -3.94013
H     2.15613   0.77580  -0.78234
H     3.98026   0.10447  -2.43134
H     3.01273  -0.19881  -4.83390
H    -0.98983  -3.09339   2.13040
H     0.85782  -1.87984   3.65238
H     3.03078  -1.43843   2.11313
O     1.53353   1.43626   0.83982
O    -0.13333   1.01511   2.11355
C     0.70586   1.86747   1.68679
C     0.66855   3.27248   2.23224
H     0.78814   4.01583   1.44543
H     1.49481   3.43623   2.93048
H    -0.25812   3.48403   2.77486
H     2.49437  -2.40289  -0.36314
H    -0.02765  -3.34319  -0.35375
39
autodE path point 2. E = -1288.38661354553 charge = 1 mult = 1 
Ir    0.45261  -0.70676   0.99188
C    -0.08853  -2.69758   1.61151
C     0.78624  -2.11305   2.59181
C     1.94032  -2.35516   0.62451
C     0.66409  -2.89003   0.40581
C     2.02039  -1.83129   1.97402
N    -0.98671  -0.01695  -0.44702
C    -2.41992   0.05509   0.02522
C    -2.85108   1.48323   0.36218
H    -3.88751   1.43922   0.70156
H    -2.82996   2.13448  -0.51744
H    -2.24896   1.90482   1.16721
C    -3.38447  -0.58680  -0.97063
H    -2.44317  -0.54299   0.94475
H    -4.35715  -0.65949  -0.48793
H    -3.54595   0.01831  -1.86528
H    -3.08297  -1.59391  -1.26605
C    -0.69063   0.29669  -1.65784
C     0.63480   0.24886  -2.25137
H    -1.52627   0.55418  -2.32746
C     1.90345   0.39787  -1.75060
C     2.90804   0.02689  -2.65118
S     0.72048   0.03094  -3.97247
C     2.41495  -0.07888  -3.91994
H     2.08154   0.73066  -0.75207
H     3.94088   0.01616  -2.36480
H     3.01719  -0.14950  -4.80757
H    -1.03241  -3.18735   1.84122
H     0.50755  -1.89851   3.61334
H     2.89093  -1.38574   2.44097
O     1.70156   1.61986   0.72300
O    -0.00250   1.04587   1.98291
C     0.81958   1.94232   1.57529
C     0.73142   3.33032   2.14619
H     0.80877   4.09028   1.36713
H     1.58254   3.50799   2.80977
H    -0.17963   3.51393   2.72266
H     2.73279  -2.30165  -0.11621
H     0.29324  -3.38078  -0.49123
39
autodE path point 3. E = -1288.369812770668 charge = 1 mult = 1 
Ir    0.45848  -0.77718   0.88884
C    -0.05532  -2.83166   1.41507
C     0.54856  -2.11637   2.51117
C     2.07816  -2.29812   0.84723
C     0.88692  -2.91801   0.37038
C     1.88304  -1.78222   2.16401
N    -1.04433  -0.07753  -0.48384
C    -2.45777  -0.01801   0.02921
C    -2.85147   1.37079   0.54294
H    -3.89608   1.30735   0.85782
H    -2.79692   2.12820  -0.24511
H    -2.23900   1.68282   1.39063
C    -3.45275  -0.52413  -1.01277
H    -2.46750  -0.71891   0.87536
H    -4.41255  -0.62896  -0.51482
H    -3.61872   0.18204  -1.82993
H    -3.17968  -1.49835  -1.42590
C    -0.76548   0.28087  -1.68701
C     0.56993   0.23290  -2.24903
H    -1.59935   0.55967  -2.34631
C     1.82608   0.33493  -1.68158
C     2.84942  -0.03646  -2.56935
S     0.71253   0.11298  -3.96552
C     2.40314  -0.06421  -3.85967
H     1.95112   0.72153  -0.70940
H     3.87759  -0.11978  -2.26430
H     3.03132  -0.08257  -4.73014
H    -1.02384  -3.32174   1.45774
H     0.07868  -1.94946   3.46550
H     2.62336  -1.31610   2.80232
O     1.91334   1.96071   0.57001
O     0.21451   1.06007   1.72072
C     1.03959   2.04103   1.35871
C     0.80351   3.38912   2.03837
H     0.83257   4.17429   1.27624
H     1.67413   3.58556   2.66804
H    -0.09328   3.51842   2.64221
H     2.97249  -2.15879   0.25680
H     0.72567  -3.40788  -0.58280
39
autodE path point 4. E = -1288.375456942393 charge = 1 mult = 1 
Ir    0.63487  -0.76616   0.58359
C    -0.01158  -2.90573   1.30017
C     0.35751  -2.12462   2.41042
C     2.16523  -2.23791   1.01154
C     1.05192  -2.87996   0.36140
C     1.73238  -1.72799   2.24576
N    -1.07294  -0.11292  -0.51999
C    -2.46923  -0.08186   0.03149
C    -2.82999   1.26758   0.66593
H    -3.87260   1.20832   0.98901
H    -2.75621   2.09702  -0.04320
H    -2.20653   1.49959   1.52759
C    -3.50028  -0.46382  -1.02965
H    -2.47784  -0.85192   0.81465
H    -4.45314  -0.59056  -0.52362
H    -3.66714   0.30626  -1.78846
H    -3.25580  -1.40392  -1.52562
C    -0.83908   0.24723  -1.72468
C     0.50535   0.19890  -2.23145
H    -1.67257   0.55344  -2.36417
C     1.64803   0.08336  -1.45318
C     2.74747  -0.10093  -2.40207
S     0.73322   0.24236  -3.94152
C     2.40455  -0.02339  -3.73652
H     1.85112   1.11839  -0.38065
H     3.79387  -0.24782  -2.16590
H     3.05365  -0.03187  -4.62154
H    -0.95466  -3.43146   1.16541
H    -0.21902  -2.03291   3.31898
H     2.34163  -1.23897   2.99786
O     1.98921   2.01601   0.20957
O     0.37927   1.11490   1.48188
C     1.12996   2.06494   1.16320
C     0.91231   3.39142   1.90203
H     0.86432   4.22273   1.19601
H     1.75199   3.62009   2.55977
H     0.00680   3.46170   2.53079
H     3.13271  -2.06519   0.57470
H     1.06661  -3.39738  -0.58141
39
autodE path point 5. E = -1288.397313939456 charge = 1 mult = 1 
Ir    0.65268  -0.77398   0.49570
C     0.01030  -2.91755   1.22839
C     0.26517  -2.14151   2.38267
C     2.20400  -2.17917   1.08784
C     1.14526  -2.85617   0.34740
C     1.65250  -1.72601   2.30900
N    -1.08598  -0.12805  -0.53625
C    -2.47391  -0.10947   0.02986
C    -2.82015   1.21746   0.73039
H    -3.86109   1.16921   1.06387
H    -2.74723   2.07682   0.05278
H    -2.19597   1.38984   1.60811
C    -3.52434  -0.43026  -1.03893
H    -2.48416  -0.91487   0.78179
H    -4.47401  -0.56881  -0.52717
H    -3.69358   0.37479  -1.76636
H    -3.29571  -1.35395  -1.57754
C    -0.86673   0.23844  -1.74498
C     0.46336   0.17889  -2.25422
H    -1.69649   0.54792  -2.37476
C     1.55177  -0.10788  -1.44342
C     2.70269  -0.15011  -2.35304
S     0.74959   0.30091  -3.95415
C     2.40163  -0.00188  -3.69881
H     1.95412   1.30960  -0.38684
H     3.75197  -0.30051  -2.12102
H     3.06116  -0.01881  -4.57845
H    -0.89134  -3.50346   1.03221
H    -0.38573  -2.06168   3.26223
H     2.20232  -1.22376   3.11403
O     2.03766   2.09072   0.18738
O     0.41964   1.12496   1.39997
C     1.13594   2.08915   1.11600
C     0.94479   3.40741   1.84855
H     0.87934   4.24754   1.15250
H     1.79007   3.63751   2.50077
H     0.05381   3.45805   2.48220
H     3.22320  -2.00927   0.74682
H     1.23904  -3.38553  -0.60141
39
autodE path point 6. E = -1288.443094115356 charge = 1 mult = 1 
Ir    0.56842  -0.80088   0.38327
C     0.30054  -2.89533   0.67739
C    -0.15899  -2.31980   1.92187
C     2.06517  -1.76715   1.64206
C     1.69506  -2.61519   0.56375
C     0.90684  -1.62792   2.49108
N    -1.20025  -0.24940  -0.60787
C    -2.51762  -0.32121   0.03539
C    -2.58972   0.64033   1.21562
H    -3.55302   0.53477   1.71353
H    -2.49733   1.67426   0.88261
H    -1.81483   0.44958   1.95592
C    -3.68686  -0.10246  -0.91261
H    -2.58904  -1.34270   0.42097
H    -4.61409  -0.29122  -0.37402
H    -3.73979   0.92402  -1.27963
H    -3.66954  -0.78061  -1.76663
C    -1.04392   0.16657  -1.81532
C     0.28892   0.13229  -2.31313
H    -1.88069   0.50156  -2.41855
C     1.26199  -0.34582  -1.45786
C     2.52154  -0.38425  -2.10940
S     0.88420   0.51605  -3.87698
C     2.45369   0.05489  -3.40896
H     2.25778   1.43351  -0.77785
H     3.44399  -0.72791  -1.66171
H     3.26615   0.11838  -4.11713
H    -0.26767  -3.54413   0.02747
H    -1.15853  -2.38900   2.32366
H     0.86434  -1.04029   3.39674
O     2.22291   2.25931  -0.25816
O     0.62512   1.25078   0.94669
C     1.31866   2.22999   0.67217
C     1.17490   3.50922   1.42513
H     0.97687   4.33102   0.73720
H     2.10923   3.74491   1.93619
H     0.37444   3.44205   2.15451
H     3.05863  -1.40716   1.86168
H     2.34248  -2.96102  -0.22909
