! EnGrad PBEh-3c
%output 
xyzfile=True 
end 
%scf 
maxiter 250 
end
%output
Print[P_Hirshfeld] = 1
end
% maxcore
4000
*xyz 0 1
C   -1.37483336   0.14277618  -0.74047656 
C   -2.20724842  -0.88886144  -1.17159894 
C   -1.95642319  -2.19243168  -0.79565354 
C   -0.95082185  -2.44710018   0.11869151 
C   -0.24346942  -0.14059015   0.03107254 
C   -0.12543612  -1.42545902   0.56724318 
H   -1.57646418   1.15548345  -1.08014605 
H   -2.98192004  -0.66762841  -1.87970527 
H   -2.51760000  -3.00684116  -1.22703602 
H    0.66440163  -1.64133773   1.27954753 
H   -0.71598123  -3.45288472   0.40847381 
Pd   1.35384368   0.96053270  -0.13796030 
O    3.42131293   1.43042043  -0.95868511 
O    2.65125343  -0.56611527  -0.49863777 
O    0.35654156   2.72095240   0.30260273 
C   -0.22077839   2.80966188   1.36445377 
O    0.00525066   1.91390578   2.28302724 
H   -0.79357603   1.67547785   2.75540793 
C    3.56775724   0.20038944  -0.92130906 
H    4.50177649  -0.26935630  -1.26159327 
H   -0.88431449   3.68782586   1.57171776 
*
