! EnGrad PBEh-3c
%output 
xyzfile=True 
end 
%scf 
maxiter 250 
end
%output
Print[P_Hirshfeld] = 1
end
% maxcore
4000
*xyz 0 1
C   -1.36910208   0.14499389  -0.73629852 
C   -2.19285462  -0.88862058  -1.17810513 
C   -1.93731531  -2.19623116  -0.80957423 
C   -0.93680752  -2.44867161   0.11425878 
C   -0.24994374  -0.14218603   0.04549133 
C   -0.12197256  -1.42366613   0.57548372 
H   -1.57865418   1.16647515  -1.05108556 
H   -2.96984656  -0.66227594  -1.89312528 
H   -2.46404950  -3.01113197  -1.27268129 
H    0.66233114  -1.63076787   1.29982711 
H   -0.70335747  -3.45802842   0.41968868 
Pd   1.36525434   0.96605095  -0.13081454 
O    3.38025953   1.41396105  -0.96808995 
O    2.62656806  -0.58126162  -0.48755079 
O    0.35011524   2.74520949   0.28034155 
C   -0.19584298   2.83058446   1.35632164 
O   -0.01280530   1.91040705   2.28702037 
H   -0.81152242   1.68537919   2.78042679 
C    3.53583400   0.18103712  -0.92843861 
H    4.46383677  -0.28870291  -1.27794187 
H   -0.88066602   3.68346094   1.58824069 
*
