! EnGrad PBEh-3c
%output 
xyzfile=True 
end 
%scf 
maxiter 250 
end
%output
Print[P_Hirshfeld] = 1
end
% maxcore
4000
*xyz 0 1
C   -1.37307613   0.14285347  -0.73985040 
C   -2.20301838  -0.89094841  -1.17457827 
C   -1.95086753  -2.19462258  -0.80084638 
C   -0.94702332  -2.44908814   0.11530502 
C   -0.24427713  -0.13869638   0.03755131 
C   -0.12468955  -1.42536499   0.56977583 
H   -1.57707723   1.16095277  -1.07030276 
H   -2.97809327  -0.66516323  -1.88449444 
H   -2.49683367  -3.00624894  -1.24232925 
H    0.66546430  -1.63790246   1.28763878 
H   -0.71149354  -3.45550000   0.41358061 
Pd   1.36018271   0.96245757  -0.13557783 
O    3.40561534   1.42433853  -0.96137187 
O    2.64205923  -0.57110036  -0.49510924 
O    0.35336236   2.73239564   0.28792277 
C   -0.20561413   2.81886755   1.35869193 
O   -0.00472463   1.90995754   2.28974969 
H   -0.80094550   1.67793749   2.76786041 
C    3.55632988   0.19308333  -0.92394185 
H    4.48798940  -0.27632288  -1.26734176 
H   -0.88517257   3.68605728   1.57873639 
*
