! EnGrad PBEh-3c
%output 
xyzfile=True 
end 
%scf 
maxiter 250 
end
%output
Print[P_Hirshfeld] = 1
end
% maxcore
4000
*xyz 0 1
C   -1.40210209   0.12832318  -0.77824995 
C   -2.23612699  -0.87808298  -1.17733463 
C   -2.00269108  -2.17514715  -0.75516607 
C   -0.94925119  -2.46397025   0.10737980 
C   -0.25496276  -0.09959022   0.06336756 
C   -0.13645012  -1.45922489   0.55014572 
H   -1.57807997   1.13471912  -1.19567946 
H   -3.04961841  -0.66761293  -1.84942208 
H   -2.65397582  -2.97030176  -1.08698863 
H    0.69877692  -1.70618308   1.22060647 
H   -0.76393021  -3.47852799   0.41059929 
Pd   1.40264511   1.00210828  -0.19070273 
O    3.50220720   1.47440162  -0.90052141 
O    2.71036536  -0.53168324  -0.54490513 
O    0.32209175   2.73765577   0.19147726 
C   -0.17007320   2.82770635   1.29165867 
O    0.04984458   1.93492315   2.36162593 
H   -0.88037601   1.56796635   2.86581241 
C    3.65820824   0.22805404  -0.90621480 
H    4.60434910  -0.22141786  -1.21753761 
H   -0.87207817   3.61562464   1.53977598 
*
