! EnGrad PBEh-3c
%output 
xyzfile=True 
end 
%scf 
maxiter 250 
end
%output
Print[P_Hirshfeld] = 1
end
% maxcore
4000
*xyz 0 1
C   -1.36549993   0.14912803  -0.72790524 
C   -2.18265385  -0.88326061  -1.18412224 
C   -1.92021138  -2.19684343  -0.81969803 
C   -0.92270627  -2.44867580   0.11524159 
C   -0.25251043  -0.13611548   0.05995407 
C   -0.11981625  -1.41827328   0.58340087 
H   -1.58338966   1.16647047  -1.03754953 
H   -2.96556573  -0.66102269  -1.90300081 
H   -2.43835346  -3.01574971  -1.29810250 
H    0.65589712  -1.62912592   1.30898460 
H   -0.69693067  -3.46495516   0.42252033 
Pd   1.35681610   0.96678635  -0.12830570 
O    3.36248569   1.40377162  -0.97428952 
O    2.61396424  -0.58944720  -0.47974859 
O    0.34507989   2.76040821   0.27684684 
C   -0.19690912   2.83517057   1.35716703 
O   -0.02500854   1.92014974   2.28773895 
H   -0.81439567   1.68981361   2.78560990 
C    3.51876710   0.17076070  -0.93370283 
H    4.44664826  -0.30029546  -1.28843128 
H   -0.86336326   3.67388474   1.59115748 
*
