! EnGrad PBEh-3c
%output 
xyzfile=True 
end 
%scf 
maxiter 250 
end
%output
Print[P_Hirshfeld] = 1
end
% maxcore
4000
*xyz 0 1
C   -1.39478285   0.13495944  -0.76821714 
C   -2.23598735  -0.88379172  -1.17814252 
C   -1.99764727  -2.17789250  -0.76041658 
C   -0.95254703  -2.46401551   0.10637070 
C   -0.25207517  -0.09876581   0.06391501 
C   -0.13378698  -1.44558884   0.55402737 
H   -1.58102860   1.13371534  -1.18625949 
H   -3.04581338  -0.66875360  -1.85513349 
H   -2.64387652  -2.97298905  -1.09767012 
H    0.69230888  -1.70239538   1.22646168 
H   -0.75872950  -3.48036021   0.40784284 
Pd   1.39062564   0.99254575  -0.18562206 
O    3.49883221   1.46771262  -0.90776550 
O    2.70673006  -0.53206840  -0.53896361 
O    0.32577366   2.74066003   0.19890410 
C   -0.17183040   2.81653142   1.30583102 
O    0.00820325   1.92814739   2.37128191 
H   -0.83700865   1.58636986   2.83422497 
C    3.65001684   0.23035414  -0.90809122 
H    4.60001414  -0.22637467  -1.22223215 
H   -0.86939490   3.62182446   1.53948039 
*
