! EnGrad PBEh-3c
%output 
xyzfile=True 
end 
%scf 
maxiter 250 
end
%output
Print[P_Hirshfeld] = 1
end
% maxcore
4000
*xyz 0 1
C   -1.38796339   0.13907987  -0.75110742 
C   -2.23353549  -0.88962890  -1.17813149 
C   -1.98866499  -2.18444061  -0.77195242 
C   -0.95627426  -2.46131370   0.11000539 
C   -0.23181458  -0.08534571   0.06261306 
C   -0.13412112  -1.42782188   0.55828639 
H   -1.58423986   1.13391288  -1.16599113 
H   -3.03822854  -0.67114959  -1.86676145 
H   -2.62340511  -2.97967014  -1.12045907 
H    0.68081690  -1.69236752   1.23821481 
H   -0.74844155  -3.48366765   0.40230037 
Pd   1.35644665   0.96683310  -0.17227642 
O    3.49363985   1.46092144  -0.92232856 
O    2.69677757  -0.53304495  -0.52633366 
O    0.33315100   2.74622995   0.22263941 
C   -0.18507284   2.80052516   1.32454688 
O   -0.06888021   1.90621000   2.39673998 
H   -0.74823066   1.62770098   2.76684530 
C    3.63693266   0.22852887  -0.91385095 
H    4.58973763  -0.23518780  -1.23116033 
H   -0.86243116   3.63349092   1.53827380 
*
