! EnGrad PBEh-3c
%output 
xyzfile=True 
end 
%scf 
maxiter 250 
end
%output
Print[P_Hirshfeld] = 1
end
% maxcore
4000
*xyz 0 1
C   -1.37164994   0.14862467  -0.74178966 
C   -2.22831557  -0.88927421  -1.17233845 
C   -1.98794768  -2.19014811  -0.77566217 
C   -0.95861560  -2.45236075   0.11365300 
C   -0.23924896  -0.10654994   0.04999526 
C   -0.12505208  -1.40917425   0.55745204 
H   -1.58262722   1.13047647  -1.15587354 
H   -3.03646285  -0.67138842  -1.87103952 
H   -2.61626943  -2.98507563  -1.13144716 
H    0.67442352  -1.68626649   1.23839928 
H   -0.74525055  -3.48458978   0.40225819 
Pd   1.34790149   0.95951889  -0.16804768 
O    3.48996475   1.45782107  -0.92622172 
O    2.69238388  -0.53658813  -0.52294752 
O    0.33572354   2.73842277   0.25785159 
C   -0.20517904   2.77643701   1.35175377 
O   -0.00282439   1.95028550   2.32365111 
H   -0.79946141   1.61816135   2.78119379 
C    3.62764051   0.22974304  -0.91388538 
H    4.58382774  -0.23833003  -1.23419051 
H   -0.85864158   3.64006949   1.53808337 
*
