! EnGrad PBEh-3c
%output 
xyzfile=True 
end 
%scf 
maxiter 250 
end
%output
Print[P_Hirshfeld] = 1
end
% maxcore
4000
*xyz 0 1
C   -1.36740550   0.15036678  -0.73834310 
C   -2.22195460  -0.88479954  -1.16832458 
C   -1.98500331  -2.19225980  -0.77847279 
C   -0.95605875  -2.44511523   0.11770977 
C   -0.24583178  -0.12030124   0.04334757 
C   -0.12293209  -1.40497611   0.55773654 
H   -1.58200099   1.12998689  -1.14640174 
H   -3.03181425  -0.67182656  -1.87362441 
H   -2.60854042  -2.99073936  -1.14303322 
H    0.66974834  -1.68049520   1.24090860 
H   -0.74186359  -3.48217922   0.40149889 
Pd   1.34531569   0.95894000  -0.16436097 
O    3.48451855   1.45676488  -0.93089572 
O    2.68848974  -0.54040045  -0.51953764 
O    0.33718301   2.73121398   0.28224665 
C   -0.21747481   2.77840192   1.35421620 
O    0.00012895   1.94926634   2.31042853 
H   -0.79198146   1.62883290   2.76862978 
C    3.62089972   0.22667879  -0.91430521 
H    4.57585329  -0.24142845  -1.23718568 
H   -0.85672598   3.64385040   1.53935558 
*
