! EnGrad PBEh-3c
%output 
xyzfile=True 
end 
%scf 
maxiter 250 
end
%output
Print[P_Hirshfeld] = 1
end
% maxcore
4000
*xyz 0 1
C   -1.36540880   0.14946293  -0.73386229 
C   -2.20575747  -0.87285739  -1.15966350 
C   -1.97144525  -2.19304466  -0.78575571 
C   -0.94863168  -2.42945309   0.12978820 
C   -0.25392096  -0.14929195   0.02425706 
C   -0.12094368  -1.40699006   0.56036489 
H   -1.57849835   1.13262170  -1.11351697 
H   -3.01081928  -0.67286061  -1.87853404 
H   -2.57936131  -3.00941381  -1.18379535 
H    0.65735786  -1.65942347   1.25172040 
H   -0.73029594  -3.46804472   0.39937247 
Pd   1.33652419   0.95623057  -0.15047352 
O    3.46385513   1.45044946  -0.94657718 
O    2.67387624  -0.55333452  -0.50825583 
O    0.35045113   2.70897281   0.33705065 
C   -0.25854343   2.79635668   1.36575629 
O    0.00527220   1.93044576   2.28512432 
H   -0.76542073   1.66545916   2.72878061 
C    3.59870002   0.21649911  -0.91658349 
H    4.54587407  -0.25217374  -1.24743488 
H   -0.85694175   3.66018307   1.54668354 
*
