! EnGrad PBEh-3c
%output 
xyzfile=True 
end 
%scf 
maxiter 250 
end
%output
Print[P_Hirshfeld] = 1
end
% maxcore
4000
*xyz 0 1
C   -1.37382678   0.14565183  -0.74881749 
C   -2.20168675  -0.86455853  -1.15831493 
C   -1.97036353  -2.18561892  -0.77903549 
C   -0.94195030  -2.42858407   0.12955266 
C   -0.27820699  -0.17433867   0.01945448 
C   -0.12045302  -1.42822521   0.56064862 
H   -1.57502749   1.13597110  -1.11347907 
H   -3.00334581  -0.67092365  -1.86957296 
H   -2.57816699  -3.01171448  -1.18632852 
H    0.66225239  -1.65744202   1.24979243 
H   -0.73247855  -3.45518331   0.40340011 
Pd   1.36823991   0.98230154  -0.15522944 
O    3.45449601   1.45045509  -0.94279742 
O    2.67507075  -0.55965247  -0.51345607 
O    0.35071185   2.69523515   0.33274122 
C   -0.25709814   2.82399656   1.34890769 
O    0.03613589   1.91932354   2.27803936 
H   -0.79688063   1.65988008   2.75429771 
C    3.59745741   0.21246460  -0.91249197 
H    4.53668216  -0.25113107  -1.24567237 
H   -0.86795493   3.66189985   1.55423636 
*
