! EnGrad PBEh-3c
%output 
xyzfile=True 
end 
%scf 
maxiter 250 
end
%output
Print[P_Hirshfeld] = 1
end
% maxcore
4000
*xyz -1 1
Pd  -2.04125064  -1.53606374   0.57123126 
Cl  -3.18861563  -3.31678525  -0.44422097 
Cl  -0.05493245  -5.10656528   0.76229815 
Cl  -4.04914849  -1.05541693   1.60243757 
N   -1.03755174   0.09128791   1.38554499 
C   -1.39133269   0.66875885   2.51761988 
C   -0.84937208   1.88478372   2.94579081 
C    0.09521880   2.49621567   2.15792590 
C   -0.09327112   0.65440957   0.59783837 
C    0.49325500   1.88321663   0.96089489 
H    0.52935501   3.44088946   2.46351523 
H   -2.09780049   0.12878761   3.13387813 
H   -1.17447720   2.32351868   3.87812846 
C    0.30688869  -0.04223647  -0.58533495 
C    1.46821699   2.45767594   0.08416111 
C    1.82373306   1.82728571  -1.06037278 
C    1.26839381   0.55806041  -1.42603280 
H    1.91524993   3.40880470   0.34690316 
H    2.56053058   2.28452208  -1.71276630 
C   -0.25121978  -1.30206760  -0.89417286 
C    1.66929227  -0.11198358  -2.59092730 
C    0.14891809  -1.91338746  -2.06919131 
C    1.13213352  -1.34281483  -2.88727370 
H    2.40461562   0.33401262  -3.25385436 
H    1.45564056  -1.85426326  -3.78619750 
H   -0.72165026  -4.03337465  -0.29467035 
H   -0.32082222  -2.82727049  -2.40315558 
*
