! EnGrad PBEh-3c
%output 
xyzfile=True 
end 
%scf 
maxiter 250 
end
%output
Print[P_Hirshfeld] = 1
end
% maxcore
4000
*xyz -1 1
Pd  -1.98859933  -1.53168920   0.49409909 
Cl  -3.15702474  -3.30878906  -0.43855777 
Cl  -0.14390687  -4.98348590   0.68194738 
Cl  -4.06154521  -1.02061407   1.60110413 
N   -1.04870243   0.07111909   1.37987205 
C   -1.37983815   0.65741841   2.53061784 
C   -0.84194411   1.87232884   2.94152064 
C    0.08871936   2.48603494   2.15720609 
C   -0.09225723   0.65189857   0.60905284 
C    0.49915073   1.88824989   0.95624773 
H    0.53041053   3.43701764   2.45938772 
H   -2.09861236   0.12363182   3.12956127 
H   -1.17152986   2.31368034   3.88213022 
C    0.31771270  -0.05517273  -0.59729131 
C    1.46259343   2.45257382   0.07970437 
C    1.81893803   1.83116840  -1.05992557 
C    1.27492754   0.57000041  -1.42785643 
H    1.90834792   3.40956632   0.34681058 
H    2.55262787   2.28623774  -1.71648281 
C   -0.32402101  -1.31754559  -0.83527267 
C    1.67466709  -0.11207099  -2.59251258 
C    0.15430004  -1.91053060  -2.06358191 
C    1.13463399  -1.33511369  -2.89570301 
H    2.40182077   0.34089546  -3.25187424 
H    1.46041978  -1.85270359  -3.79160852 
H   -0.65909349  -4.12455637  -0.17200839 
H   -0.31114682  -2.83928386  -2.40378270 
*
