! EnGrad PBEh-3c
%output 
xyzfile=True 
end 
%scf 
maxiter 250 
end
%output
Print[P_Hirshfeld] = 1
end
% maxcore
4000
*xyz -1 1
Pd  -1.96160672  -1.52200216   0.44324794 
Cl  -3.13049362  -3.30321500  -0.43939670 
Cl  -0.19766997  -4.90844283   0.63873663 
Cl  -4.05979629  -0.99532224   1.59639609 
N   -1.04605272   0.06959215   1.37988698 
C   -1.37423247   0.63736559   2.52674073 
C   -0.84174428   1.86262645   2.95019996 
C    0.09522869   2.48883906   2.15062733 
C   -0.08696110   0.64467169   0.60435281 
C    0.49300757   1.88188817   0.96019078 
H    0.52842678   3.43043551   2.45555370 
H   -2.10171325   0.11901781   3.12806351 
H   -1.16710527   2.30327566   3.88028221 
C    0.30652548  -0.06219633  -0.58104519 
C    1.46273605   2.46025334   0.08036360 
C    1.81879032   1.83463905  -1.06398480 
C    1.27554443   0.56007358  -1.43561135 
H    1.90163534   3.40734387   0.34558415 
H    2.54634179   2.28792112  -1.71914729 
C   -0.34581589  -1.32527684  -0.83395802 
C    1.67950908  -0.10377858  -2.59041666 
C    0.13809850  -1.90985717  -2.03672605 
C    1.12852565  -1.33349481  -2.89103515 
H    2.40194360   0.34715591  -3.25227238 
H    1.46258851  -1.85151183  -3.79480380 
H   -0.62329098  -4.17588360  -0.09516596 
H   -0.30000421  -2.84326810  -2.40211619 
*
