! EnGrad PBEh-3c
%output 
xyzfile=True 
end 
%scf 
maxiter 250 
end
%output
Print[P_Hirshfeld] = 1
end
% maxcore
4000
*xyz -1 1
Pd  -1.97358508  -1.51697018   0.45127252 
Cl  -3.12810520  -3.30410218  -0.44452637 
Cl  -0.16091852  -4.96746138   0.69766490 
Cl  -4.05074778  -0.99586501   1.59330323 
N   -1.03728095   0.07560657   1.37811928 
C   -1.37624162   0.63556099   2.52245673 
C   -0.83986792   1.86168820   2.94971425 
C    0.09445622   2.48911488   2.15310681 
C   -0.08635181   0.64352759   0.60117673 
C    0.49152981   1.87763730   0.95965975 
H    0.52795890   3.43058165   2.45525790 
H   -2.10369343   0.11763520   3.12853026 
H   -1.16665323   2.30191122   3.87968381 
C    0.29952312  -0.06077401  -0.57403932 
C    1.46228062   2.46114452   0.08131227 
C    1.81801304   1.83249642  -1.06430972 
C    1.26948192   0.55269631  -1.42995221 
H    1.90186016   3.40853491   0.34569085 
H    2.54722241   2.28888126  -1.72023115 
C   -0.32362397  -1.31839060  -0.85811125 
C    1.67759894  -0.10562608  -2.59186782 
C    0.13044940  -1.91197116  -2.03180350 
C    1.12241506  -1.33528187  -2.88094319 
H    2.40392354   0.34836990  -3.25378854 
H    1.46004105  -1.85092600  -3.79165942 
H   -0.65850854  -4.11698583  -0.15229148 
H   -0.29827348  -2.83991139  -2.39928103 
*
