! EnGrad PBEh-3c
%output 
xyzfile=True 
end 
%scf 
maxiter 250 
end
%output
Print[P_Hirshfeld] = 1
end
% maxcore
4000
*xyz -1 1
Pd  -1.96656164  -1.48744176   0.40651458 
Cl  -3.08269790  -3.30082459  -0.46556106 
Cl  -0.17493917  -4.95359687   0.72706993 
Cl  -4.02148102  -0.96304692   1.57780720 
N   -1.02862465   0.06764654   1.37161456 
C   -1.37003311   0.62358076   2.52141312 
C   -0.83062942   1.84102289   2.94786368 
C    0.08952309   2.47551102   2.15418546 
C   -0.08044857   0.64372820   0.60452113 
C    0.49633293   1.87561025   0.95606198 
H    0.52628152   3.42705685   2.44993501 
H   -2.11080763   0.10620043   3.12106523 
H   -1.16116192   2.28408003   3.88020080 
C    0.30117610  -0.06246367  -0.58029359 
C    1.45412753   2.45626713   0.07821727 
C    1.80786544   1.82424732  -1.06356451 
C    1.26114820   0.54732880  -1.41322400 
H    1.89468561   3.41368599   0.34596075 
H    2.53885364   2.29085501  -1.72661928 
C   -0.33602548  -1.30617345  -0.86024677 
C    1.66772701  -0.11339328  -2.58832396 
C    0.12635940  -1.91480343  -2.03262192 
C    1.11031253  -1.33893065  -2.86631204 
H    2.40358289   0.35583029  -3.25371178 
H    1.44730526  -1.84440809  -3.77220538 
H   -0.66633189  -4.09807033  -0.12840252 
H   -0.28866785  -2.84664595  -2.38661642 
*
