! EnGrad PBEh-3c
%output 
xyzfile=True 
end 
%scf 
maxiter 250 
end
%output
Print[P_Hirshfeld] = 1
end
% maxcore
4000
*xyz -1 1
Pd  -1.97210021  -1.42309581   0.34203483 
Cl  -2.97433973  -3.29693410  -0.54968625 
Cl  -0.20375525  -4.90776138   0.79127077 
Cl  -3.94255474  -0.88577576   1.52843448 
N   -1.01652279   0.05875570   1.35749580 
C   -1.36408459   0.58929744   2.51849911 
C   -0.81116279   1.80030137   2.95231347 
C    0.09402943   2.45121872   2.16011837 
C   -0.06823482   0.63693410   0.60379896 
C    0.50330018   1.86770253   0.95884235 
H    0.51219269   3.40966955   2.44074110 
H   -2.11950578   0.07613252   3.08960351 
H   -1.14605566   2.23152751   3.88441073 
C    0.30116025  -0.05219685  -0.58284650 
C    1.44623231   2.46073769   0.07244679 
C    1.79990852   1.82472625  -1.06219372 
C    1.26742918   0.54749918  -1.41402581 
H    1.87143097   3.41752835   0.33782787 
H    2.50631479   2.28331153  -1.73714480 
C   -0.35063902  -1.28313010  -0.87687782 
C    1.65431655  -0.11118537  -2.57437122 
C    0.11230579  -1.91771722  -2.02413302 
C    1.09937920  -1.33651970  -2.84507671 
H    2.37528295   0.35055144  -3.23468902 
H    1.41552325  -1.85091812  -3.74051659 
H   -0.68687251  -4.05936695  -0.04567403 
H   -0.28295285  -2.87454629  -2.34966366 
*
