! EnGrad PBEh-3c
%output 
xyzfile=True 
end 
%scf 
maxiter 250 
end
%output
Print[P_Hirshfeld] = 1
end
% maxcore
4000
*xyz -1 1
Pd  -1.97073320  -1.41569249   0.32838839 
Cl  -2.94437837  -3.29420655  -0.58608796 
Cl  -0.20860769  -4.89351430   0.81759963 
Cl  -3.92828077  -0.85992288   1.51137459 
N   -1.01868654   0.05903648   1.35486736 
C   -1.35731309   0.58134101   2.51286424 
C   -0.80899166   1.78717679   2.95806024 
C    0.09998610   2.44461098   2.16170861 
C   -0.06367122   0.63664238   0.60112155 
C    0.50469788   1.86269232   0.96166496 
H    0.50613672   3.40450090   2.44215989 
H   -2.12177937   0.06360682   3.07908386 
H   -1.14064139   2.21269965   3.88987902 
C    0.30207581  -0.04921214  -0.58530589 
C    1.44351719   2.46328400   0.07509715 
C    1.79985151   1.82886436  -1.06304821 
C    1.26617738   0.55367669  -1.41135661 
H    1.86422948   3.42144464   0.33314328 
H    2.49999258   2.28408251  -1.74469814 
C   -0.35220434  -1.27666019  -0.87818255 
C    1.65193805  -0.11246030  -2.57288812 
C    0.10834296  -1.92012296  -2.01892688 
C    1.09532286  -1.33900808  -2.84220237 
H    2.36840806   0.34795160  -3.23349760 
H    1.41035255  -1.86113563  -3.74185988 
H   -0.69676759  -4.04204594  -0.01513537 
H   -0.28416621  -2.88095259  -2.33560836 
*
