! EnGrad PBEh-3c
%output 
xyzfile=True 
end 
%scf 
maxiter 250 
end
%output
Print[P_Hirshfeld] = 1
end
% maxcore
4000
*xyz -1 1
Pt  -0.86308782  -0.80401550   0.48370831 
Cl  -0.20069529  -0.42748435   2.69676296 
Cl  -2.66484724  -2.15901125   1.14983271 
Cl  -1.46211705  -1.14818824  -1.75663972 
C    0.92613044   1.00032375  -0.55939384 
H    1.43323239   1.74005409   0.06002853 
H    1.28425253  -0.38964123   0.27795066 
H    1.54560107   0.74553787  -1.41620667 
H    0.00153097   1.44242041  -0.93603184 
*
