! EnGrad PBEh-3c
%output 
xyzfile=True 
end 
%scf 
maxiter 250 
end
%output
Print[P_Hirshfeld] = 1
end
% maxcore
4000
*xyz -1 1
Pt  -0.83476149  -0.82347794   0.48156713 
Cl  -0.19962679  -0.41483261   2.68094067 
Cl  -2.61282134  -2.10845685   1.13383623 
Cl  -1.43909392  -1.14434804  -1.74528871 
C    0.96223480   0.89792140  -0.49671247 
H    1.43138449   1.70678122   0.08089405 
H    1.15094081  -0.23814197   0.16908033 
H    1.53677488   0.73591645  -1.41376569 
H    0.00274398   1.38858593  -0.89015182 
*
