! EnGrad PBEh-3c
%output 
xyzfile=True 
end 
%scf 
maxiter 250 
end
%output
Print[P_Hirshfeld] = 1
end
% maxcore
4000
*xyz -1 1
Pt  -0.80131930  -0.82576020   0.47167355 
Cl  -0.19058763  -0.39287981   2.66743585 
Cl  -2.57401695  -2.06505405   1.12277964 
Cl  -1.40847210  -1.14710647  -1.74402620 
C    0.96563425   0.84062147  -0.46396736 
H    1.42678579   1.65913839   0.10485313 
H    1.05006438  -0.13834361   0.08324054 
H    1.51577121   0.72559927  -1.40178245 
H    0.01222586   1.34403244  -0.83913672 
*
