! EnGrad PBEh-3c
%output 
xyzfile=True 
end 
%scf 
maxiter 250 
end
%output
Print[P_Hirshfeld] = 1
end
% maxcore
4000
*xyz -1 1
Pt  -0.79599039  -0.82551501   0.46751973 
Cl  -0.18479246  -0.38315492   2.66301404 
Cl  -2.55842818  -2.04946944   1.12012889 
Cl  -1.39464084  -1.14854337  -1.74603502 
C    0.95287041   0.86116732  -0.47749549 
H    1.42710059   1.62940508   0.11861956 
H    1.01214974  -0.10645744   0.05636889 
H    1.50941838   0.71562951  -1.39304883 
H    0.02731999   1.30753563  -0.80727133 
*
