! EnGrad PBEh-3c
%output 
xyzfile=True 
end 
%scf 
maxiter 250 
end
%output
Print[P_Hirshfeld] = 1
end
% maxcore
4000
*xyz -1 1
Pt  -0.79814080  -0.82434882   0.46685638 
Cl  -0.18213226  -0.38015405   2.66201676 
Cl  -2.55562266  -2.04733886   1.12099848 
Cl  -1.39017055  -1.14902786  -1.74818469 
C    0.95282424   0.87486488  -0.48631708 
H    1.43038819   1.62107616   0.12626149 
H    1.00259284  -0.10167683   0.05246570 
H    1.51096686   0.71084290  -1.39297656 
H    0.02370155   1.29660120  -0.79880282 
*
