! EnGrad PBEh-3c
%output 
xyzfile=True 
end 
%scf 
maxiter 250 
end
%output
Print[P_Hirshfeld] = 1
end
% maxcore
4000
*xyz 0 1
Lu   0.01379546  -0.34214082   0.26450775 
C    0.49495184   0.62840118   2.61838735 
C    1.57171819  -0.21742310   2.26907260 
C    2.31426644   0.42061108   1.25430495 
C    1.68276692   1.63906776   0.94908647 
C    0.56304438   1.77200615   1.80086103 
H    2.04473218   2.37656874   0.24532693 
H   -0.09288879   2.63235391   1.84820991 
H   -0.23656803   0.43844518   3.38921694 
H    1.81183135  -1.16534450   2.72973489 
H    3.23420389   0.05647077   0.82101023 
C    0.75177611  -0.10919634  -2.29764130 
C   -0.45938076  -0.83888155  -2.29311651 
C    1.12199459  -2.08714316  -1.22759926 
C    1.72820746  -0.88931545  -1.65906580 
H    0.92626047   0.84224891  -2.78375421 
C   -0.22943015  -2.06115608  -1.64129421 
H   -1.38742990  -0.52883149  -2.75280405 
H    2.77598493  -0.64189192  -1.56947660 
H    1.62531722  -2.91010847  -0.74092598 
H   -0.96242415  -2.83430041  -1.46758021 
C   -1.96518920  -1.42366542   1.12380032 
H   -2.26966235  -1.12345783   2.13577263 
H   -1.82786288  -2.51789988   1.19029166 
H   -2.87692651  -1.30471400   0.51425005 
C   -2.07368212   2.05364180  -0.94563603 
H   -2.14716715   1.25137021  -0.19086360 
H   -0.97859425   2.29599158  -1.00131624 
H   -2.66607771   2.90247896  -0.54776637 
H   -2.47797072   1.65688687  -1.90126420 
*
