! EnGrad PBEh-3c
%output 
xyzfile=True 
end 
%scf 
maxiter 250 
end
%output
Print[P_Hirshfeld] = 1
end
% maxcore
4000
*xyz 0 1
Lu   0.05061574  -0.33244310   0.26623676 
C    0.52914774   0.51206975   2.65713047 
C    1.66137854  -0.24000298   2.27813144 
C    2.34053796   0.46128403   1.26471791 
C    1.60812091   1.63101556   0.98273031 
C    0.49817526   1.67144108   1.85330145 
H    1.87027730   2.39480299   0.26203780 
H   -0.17475358   2.49885271   1.97502680 
H   -0.15041762   0.28191452   3.45703036 
H    1.97052598  -1.17938408   2.72080957 
H    3.26978955   0.17146608   0.80498415 
C    0.67359149  -0.13473926  -2.26071591 
C   -0.50735889  -0.91176177  -2.19846752 
C    1.17202929  -2.12191133  -1.25992449 
C    1.71945433  -0.89716724  -1.69469065 
H    0.76721045   0.82867450  -2.72686765 
C   -0.19827083  -2.14001900  -1.58146824 
H   -1.45368380  -0.66118417  -2.65419890 
H    2.75307924  -0.60864892  -1.63350702 
H    1.72281067  -2.93236664  -0.79391841 
H   -0.87583523  -2.95599735  -1.44401962 
C   -1.96607032  -1.36624123   1.11971189 
H   -2.36726829  -1.01216738   2.10656665 
H   -1.98075327  -2.46694443   1.21345677 
H   -2.80072992  -1.19482130   0.39855708 
C   -2.02024050   2.10320212  -0.98729204 
H   -2.30982622   1.17868023  -0.12520471 
H   -0.93088467   2.59045015  -1.21626230 
H   -2.56707483   3.03328263  -0.76732970 
H   -2.30456798   1.79853782  -1.99965287 
*
