! EnGrad PBEh-3c
%output 
xyzfile=True 
end 
%scf 
maxiter 250 
end
%output
Print[P_Hirshfeld] = 1
end
% maxcore
4000
*xyz 0 1
Lu   0.00344158  -0.33485035   0.27020473 
C    0.52410293   0.55938916   2.64802888 
C    1.62898550  -0.23386285   2.27334471 
C    2.33215861   0.44692314   1.25835839 
C    1.64622378   1.64086276   0.98000658 
C    0.52682122   1.71008403   1.83890276 
H    1.92863083   2.38886535   0.25443439 
H   -0.14710110   2.54930131   1.93406453 
H   -0.17778161   0.33480905   3.43455927 
H    1.91596209  -1.17322174   2.72103436 
H    3.26651179   0.13475802   0.81458313 
C    0.70551818  -0.13192231  -2.28343045 
C   -0.48813015  -0.88818867  -2.23704475 
C    1.15738236  -2.10911059  -1.24573574 
C    1.72363370  -0.89488937  -1.68487975 
H    0.82121550   0.83824775  -2.74799984 
C   -0.20794825  -2.11058122  -1.60469586 
H   -1.42953322  -0.61801385  -2.68916325 
H    2.76732428  -0.62272032  -1.61817968 
H    1.68993687  -2.92398407  -0.78049141 
H   -0.90740543  -2.91931539  -1.45337330 
C   -1.96583625  -1.38836303   1.12362168 
H   -2.33909639  -1.06257485   2.10212613 
H   -1.94035998  -2.48747186   1.21503043 
H   -2.82213930  -1.24168113   0.44526376 
C   -2.02207230   2.06448472  -0.94404150 
H   -2.24647099   1.28567037  -0.21669530 
H   -1.01691056   2.46881307  -1.13744043 
H   -2.58048793   2.95958059  -0.69625454 
H   -2.34695338   1.75524380  -1.93007506 
*
