! EnGrad PBEh-3c
%output 
xyzfile=True 
end 
%scf 
maxiter 250 
end
%output
Print[P_Hirshfeld] = 1
end
% maxcore
4000
*xyz 0 1
Lu  -0.01744140  -0.33955636   0.27300991 
C    0.51707512   0.59172887   2.64149089 
C    1.60462688  -0.22706674   2.26816293 
C    2.32694712   0.43419643   1.25374337 
C    1.66792782   1.64473559   0.97447645 
C    0.54598371   1.74221940   1.82784970 
H    1.97613361   2.38532552   0.24841679 
H   -0.12602744   2.58548804   1.89992231 
H   -0.20033309   0.37594877   3.41632898 
H    1.87425416  -1.17056899   2.72325159 
H    3.25914735   0.10479261   0.82028943 
C    0.72782433  -0.12395474  -2.29792840 
C   -0.47342454  -0.87013042  -2.26596754 
C    1.14171356  -2.09667461  -1.23592002 
C    1.72867628  -0.89165589  -1.67518926 
H    0.86397823   0.84206173  -2.76301063 
C   -0.21761836  -2.09421153  -1.62151276 
H   -1.41331314  -0.58237857  -2.71541220 
H    2.77419899  -0.63252521  -1.60345618 
H    1.66586145  -2.91989479  -0.76700727 
H   -0.92944870  -2.88602262  -1.45928747 
C   -1.96545766  -1.41029354   1.12168740 
H   -2.31583628  -1.09407772   2.10736327 
H   -1.90070031  -2.49921338   1.21230209 
H   -2.84096971  -1.27251323   0.47822018 
C   -2.03375391   2.07813676  -0.96259165 
H   -2.19217321   1.32555111  -0.24659429 
H   -1.05243354   2.36723529  -1.06193406 
H   -2.60407459   2.91017082  -0.63306378 
H   -2.38988891   1.71365376  -1.88552737 
*
