! EnGrad PBEh-3c
%output 
xyzfile=True 
end 
%scf 
maxiter 250 
end
%output
Print[P_Hirshfeld] = 1
end
% maxcore
4000
*xyz 0 1
Lu  -0.00470931  -0.34124827   0.27079707 
C    0.51054992   0.60003985   2.63632847 
C    1.59604418  -0.22463377   2.26779039 
C    2.32338248   0.43085184   1.25379728 
C    1.67050626   1.64275738   0.96606185 
C    0.55033648   1.75187151   1.82173129 
H    1.99539388   2.38323259   0.24761652 
H   -0.11739186   2.59792063   1.88542503 
H   -0.21006465   0.39278700   3.40897811 
H    1.85763400  -1.16971747   2.72533714 
H    3.25201530   0.09137326   0.82023753 
C    0.73316550  -0.11792891  -2.29780842 
C   -0.47107687  -0.86195234  -2.27440777 
C    1.13579687  -2.09366359  -1.23288417 
C    1.72969225  -0.89103869  -1.66998260 
H    0.88105894   0.84130739  -2.76832747 
C   -0.22047304  -2.08642246  -1.62709130 
H   -1.40644632  -0.56762255  -2.72501920 
H    2.77359453  -0.63510583  -1.59418828 
H    1.65546246  -2.91765753  -0.75977974 
H   -0.93813422  -2.87160113  -1.46094744 
C   -1.96722396  -1.41501335   1.12202713 
H   -2.30316614  -1.10072900   2.11579465 
H   -1.87869491  -2.50558100   1.20659463 
H   -2.85096913  -1.28051423   0.48660580 
C   -2.05806671   2.08565397  -0.97227256 
H   -2.17662574   1.29452370  -0.21877827 
H   -1.00684491   2.34584500  -1.03875379 
H   -2.63004953   2.91667984  -0.60393602 
H   -2.42092845   1.69043364  -1.90152403 
*
