! EnGrad PBEh-3c
%output 
xyzfile=True 
end 
%scf 
maxiter 250 
end
%output
Print[P_Hirshfeld] = 1
end
% maxcore
4000
*xyz 0 1
Lu   0.02013576  -0.34000359   0.26040154 
C    0.48766514   0.64080858   2.60912564 
C    1.55936298  -0.21193139   2.27010957 
C    2.31142838   0.41493694   1.25494750 
C    1.68858096   1.63680660   0.94309697 
C    0.56814056   1.77989582   1.78764043 
H    2.06634931   2.37300366   0.24432225 
H   -0.08048906   2.64746434   1.83169901 
H   -0.24884251   0.46009238   3.37932843 
H    1.79040845  -1.16321897   2.73205889 
H    3.22501977   0.04089163   0.82159395 
C    0.76021007  -0.10633653  -2.29744421 
C   -0.45191641  -0.82629604  -2.29935439 
C    1.11465959  -2.08256636  -1.22816019 
C    1.72815378  -0.88974104  -1.65453114 
H    0.94665285   0.84259011  -2.79064213 
C   -0.23439917  -2.05026472  -1.64600334 
H   -1.37815042  -0.51133267  -2.76624880 
H    2.77726829  -0.64474089  -1.55743179 
H    1.61108851  -2.90736138  -0.73117499 
H   -0.97321671  -2.81647673  -1.47189805 
C   -1.96447308  -1.42667303   1.12463263 
H   -2.25321776  -1.13483867   2.14456899 
H   -1.80761765  -2.51812557   1.18046979 
H   -2.88663340  -1.31580809   0.53040967 
C   -2.08114200   2.03852411  -0.93216842 
H   -2.14366375   1.21970313  -0.17281566 
H   -0.98192630   2.28397115  -0.99751198 
H   -2.66511705   2.87834423  -0.53219418 
H   -2.49176395   1.65325706  -1.88219226 
*
