! EnGrad PBEh-3c
%output 
xyzfile=True 
end 
%scf 
maxiter 250 
end
%output
Print[P_Hirshfeld] = 1
end
% maxcore
4000
*xyz 1 1
Sc   1.02626191  -0.65864520  -1.93395643 
C    0.26972086  -0.47428458   0.21301953 
N   -0.45670339  -1.33872432   0.93903585 
C   -0.68248042  -0.84522086   2.18979037 
C   -0.03204091   0.33493367   2.26422121 
N    0.51300885   0.56331153   1.03748410 
C    1.33584170   1.71592199   0.74120870 
H    1.16800317   2.55938572   1.40737513 
H    1.10144873   2.08898518  -0.25286692 
H    2.39196147   1.45609470   0.78894982 
C   -0.95417658  -2.63190241   0.51193066 
H   -0.73686155  -2.78983981  -0.54168425 
H   -2.03134666  -2.67348221   0.65656896 
H   -0.48267210  -3.42795950   1.08494834 
H   -1.25379093  -1.36354788   2.94050472 
H    0.05834133   0.99868865   3.10624854 
C    0.02159868   1.60590888  -2.91097236 
H   -0.55845541   1.57173361  -3.84365362 
H    0.72802693   2.43207411  -3.05494588 
H   -0.68729142   1.91549370  -2.13516842 
H   -0.73836806  -1.03891735  -3.20804186 
*
