! EnGrad PBEh-3c
%output 
xyzfile=True 
end 
%scf 
maxiter 250 
end
%output
Print[P_Hirshfeld] = 1
end
% maxcore
4000
*xyz 1 1
Sc   0.91372360  -0.58285609  -2.03846158 
C    0.29754889  -0.48719911   0.20337673 
N   -0.46299299  -1.33349331   0.94117287 
C   -0.68897660  -0.84467282   2.19590402 
C   -0.06122499   0.34693620   2.26496957 
N    0.52253199   0.55511426   1.05672401 
C    1.36302623   1.71625976   0.70216533 
H    1.19748605   2.52643920   1.42608722 
H    1.09488080   2.09037766  -0.25576011 
H    2.40322796   1.43638562   0.75900918 
C   -0.95245101  -2.63751218   0.51150450 
H   -0.72087483  -2.80620693  -0.53146255 
H   -2.03258517  -2.67269647   0.63459563 
H   -0.50001626  -3.42641864   1.11026777 
H   -1.27800793  -1.34929203   2.92960912 
H    0.03608546   1.02338397   3.08533753 
C    0.03436191   1.58672066  -2.87338515 
H   -0.57552092   1.55204584  -3.81770209 
H    0.69948184   2.43988086  -3.02858813 
H   -0.69864065   1.88446600  -2.11197523 
H   -0.59155053  -1.01646836  -3.16265656 
*
