! EnGrad PBEh-3c
%output 
xyzfile=True 
end 
%scf 
maxiter 250 
end
%output
Print[P_Hirshfeld] = 1
end
% maxcore
4000
*xyz 1 1
Sc   0.81171026  -0.50593639  -2.13127269 
C    0.31630627  -0.49613938   0.21243527 
N   -0.46310656  -1.33170732   0.93601433 
C   -0.69616417  -0.84117292   2.19350327 
C   -0.08223969   0.35710038   2.26122806 
N    0.53881263   0.54900875   1.05073513 
C    1.37638438   1.70780126   0.69697225 
H    1.22819344   2.49321191   1.43692471 
H    1.08563468   2.09608658  -0.27103661 
H    2.41887561   1.41703577   0.72733611 
C   -0.95268135  -2.63896099   0.51694294 
H   -0.70406405  -2.82217302  -0.52411492 
H   -2.03390687  -2.67227517   0.61353556 
H   -0.51646683  -3.42471480   1.13330170 
H   -1.30368952  -1.33864398   2.92277493 
H    0.01409611   1.04950753   3.06985648 
C    0.03470263   1.56472248  -2.84780474 
H   -0.58478614   1.53296578  -3.78354585 
H    0.67447954   2.44794926  -3.00247582 
H   -0.70878458   1.85510560  -2.08876702 
H   -0.45399703  -0.99637858  -3.12133674 
*
