! EnGrad PBEh-3c
%output 
xyzfile=True 
end 
%scf 
maxiter 250 
end
%output
Print[P_Hirshfeld] = 1
end
% maxcore
4000
*xyz 1 1
Sc   0.77366273  -0.45223222  -2.16368449 
C    0.32146192  -0.49922931   0.22214419 
N   -0.45917801  -1.33422846   0.93189335 
C   -0.70256190  -0.83562585   2.18670671 
C   -0.08448815   0.36206208   2.25129730 
N    0.54824744   0.54561499   1.03832343 
C    1.37521994   1.69602594   0.70583786 
H    1.24617932   2.47586327   1.44007098 
H    1.08090670   2.10028649  -0.28060961 
H    2.42963208   1.40660044   0.70686704 
C   -0.95290011  -2.63714119   0.52115241 
H   -0.69357815  -2.83117242  -0.51991717 
H   -2.03553414  -2.67195376   0.60208894 
H   -0.52562082  -3.42305001   1.14495819 
H   -1.31891578  -1.33444259   2.92022113 
H    0.00080155   1.06576319   3.06424328 
C    0.02594262   1.55312578  -2.84153734 
H   -0.58469745   1.52111438  -3.75827782 
H    0.66122203   2.44945077  -2.98615087 
H   -0.71387625   1.83869396  -2.07433689 
H   -0.39274636  -0.99236797  -3.10996662 
*
