! EnGrad PBEh-3c
%output 
xyzfile=True 
end 
%scf 
maxiter 250 
end
%output
Print[P_Hirshfeld] = 1
end
% maxcore
4000
*xyz 1 1
Sc   0.78897206  -0.44006923  -2.14846826 
C    0.32108616  -0.50046695   0.21646193 
N   -0.45818378  -1.33544302   0.93437483 
C   -0.70521925  -0.83337033   2.18530651 
C   -0.08011440   0.36333607   2.24825644 
N    0.54558979   0.54461154   1.04100518 
C    1.37544265   1.69304287   0.70026299 
H    1.24750887   2.47640441   1.44148808 
H    1.08234558   2.09927959  -0.27567812 
H    2.42869957   1.40634377   0.70364325 
C   -0.95237477  -2.63728063   0.51955314 
H   -0.69212370  -2.83197475  -0.51803855 
H   -2.03620858  -2.67144407   0.60128184 
H   -0.52670514  -3.42220581   1.14549770 
H   -1.31939903  -1.33343881   2.91864249 
H   -0.00115933   1.06643269   3.06259380 
C    0.02335985   1.55603156  -2.84114554 
H   -0.58524891   1.51932661  -3.75707607 
H    0.65909031   2.44659617  -2.98352204 
H   -0.71454498   1.83698022  -2.07194122 
H   -0.40169712  -0.99935719  -3.12123621 
*
