! EnGrad PBEh-3c
%output 
xyzfile=True 
end 
%scf 
maxiter 250 
end
%output
Print[P_Hirshfeld] = 1
end
% maxcore
4000
*xyz 1 1
Sc   0.78782316  -0.36345539  -2.14409467 
C    0.32616248  -0.50798490   0.20769831 
N   -0.45378700  -1.33795733   0.93664354 
C   -0.71566298  -0.82315649   2.17898107 
C   -0.07837023   0.37025689   2.23988488 
N    0.54776722   0.53833624   1.03926542 
C    1.38150976   1.68168900   0.68752949 
H    1.26664864   2.45998346   1.44762555 
H    1.08178541   2.09938401  -0.26889233 
H    2.43303793   1.39596696   0.67765932 
C   -0.95221593  -2.63855233   0.51909733 
H   -0.67890511  -2.84193175  -0.50987866 
H   -2.03835982  -2.66934215   0.58870365 
H   -0.53801798  -3.41853704   1.15752239 
H   -1.33272430  -1.32488444   2.91004636 
H   -0.01754833   1.08065909   3.04908077 
C    0.01583529   1.55287600  -2.82541583 
H   -0.59173648   1.50346885  -3.73840818 
H    0.64164410   2.44206025  -2.96253390 
H   -0.72207144   1.81812956  -2.05248275 
H   -0.36399553  -1.01237819  -3.13676584 
*
