! EnGrad PBEh-3c
%output 
xyzfile=True 
end 
%scf 
maxiter 250 
end
%output
Print[P_Hirshfeld] = 1
end
% maxcore
4000
*xyz 1 1
Sc   0.80471600  -0.29280040  -2.12170961 
C    0.32677523  -0.51374692   0.20304980 
N   -0.44923622  -1.34079225   0.93614514 
C   -0.72442753  -0.81259820   2.17134992 
C   -0.07663880   0.37431148   2.23303442 
N    0.55143664   0.53334637   1.03083089 
C    1.38610828   1.67110021   0.68452733 
H    1.28435093   2.44410854   1.44922612 
H    1.08066232   2.10074671  -0.26355436 
H    2.43586765   1.38638417   0.65241255 
C   -0.95319963  -2.63957172   0.52011237 
H   -0.66569280  -2.85060734  -0.50326118 
H   -2.03995215  -2.66651978   0.57758072 
H   -0.54845695  -3.41493361   1.16738798 
H   -1.34338494  -1.31595360   2.90076078 
H   -0.03209806   1.09298341   3.03550839 
C    0.00508453   1.55473051  -2.81102732 
H   -0.59807785   1.48773773  -3.72328084 
H    0.62712975   2.43844359  -2.94284626 
H   -0.73021644   1.80220579  -2.03283778 
H   -0.34213919  -1.03250827  -3.16229228 
*
