! EnGrad PBEh-3c
%output 
xyzfile=True 
end 
%scf 
maxiter 250 
end
%output
Print[P_Hirshfeld] = 1
end
% maxcore
4000
*xyz 1 1
Sc   0.85449666  -0.16099937  -2.05602251 
C    0.32822990  -0.52417645   0.19838247 
N   -0.45027910  -1.34222118   0.92274957 
C   -0.73859372  -0.79466370   2.14401347 
C   -0.08657980   0.38582442   2.21441495 
N    0.56300053   0.52328855   1.00980730 
C    1.40426818   1.64609217   0.67451496 
H    1.34037411   2.39627991   1.45026501 
H    1.07166441   2.11476641  -0.24838564 
H    2.44771172   1.35037118   0.57458544 
C   -0.95682936  -2.64473082   0.52121558 
H   -0.62171692  -2.87482678  -0.48517189 
H   -2.04354132  -2.65236888   0.54286994 
H   -0.58161330  -3.40700471   1.19801671 
H   -1.37164235  -1.28097661   2.86645334 
H   -0.07071656   1.12771610   2.98438121 
C   -0.04685553   1.58648709  -2.76421943 
H   -0.61965613   1.43235584  -3.68200661 
H    0.59141420   2.45371219  -2.88191817 
H   -0.77077875   1.76668599  -1.96097607 
H   -0.24303390  -1.09140846  -3.22266752 
*
