! EnGrad PBEh-3c
%output 
xyzfile=True 
end 
%scf 
maxiter 250 
end
%output
Print[P_Hirshfeld] = 1
end
% maxcore
4000
*xyz 1 1
Ir   0.44058614  -0.65933924   1.03305390 
C   -0.01656422  -2.60646297   1.92785045 
C    1.14966895  -2.06938379   2.56476465 
C    1.60047950  -2.36232567   0.32172820 
C    0.30057917  -2.82525613   0.55793461 
C    2.13387855  -1.90225759   1.58710452 
N   -0.91232251   0.04717325  -0.39641857 
C   -2.35507256   0.17604563   0.00648258 
C   -2.81836159   1.62188800   0.05784501 
H   -3.84427023   1.65655415   0.43852359 
H   -2.80972261   2.09045375  -0.92285119 
H   -2.21302767   2.22054132   0.72651784 
C   -3.27365063  -0.66159275  -0.87997169 
H   -2.41056957  -0.22093015   1.01031286 
H   -4.27213398  -0.67940803  -0.43425423 
H   -3.39004435  -0.25205504  -1.88337418 
H   -2.93586769  -1.68971111  -0.96650924 
C   -0.61504463   0.28637717  -1.62489448 
C    0.68763907   0.20123518  -2.23978950 
H   -1.43213081   0.54429831  -2.28672099 
C    1.98907425   0.34718946  -1.69838444 
C    2.95944410   0.13327824  -2.69803096 
S    0.75522390  -0.05159000  -3.96681456 
C    2.45507229  -0.07362539  -3.95255501 
H    2.25239153   0.85586398  -0.80212348 
H    4.02185288   0.16545070  -2.49229614 
H    3.01844850  -0.24249023  -4.85497894 
H   -0.89877622  -2.98248187   2.43372933 
H    1.24280396  -1.89750689   3.63014419 
H    3.12663375  -1.50285317   1.72358175 
O    1.46381972   1.44585790   0.97753094 
O   -0.23202697   0.93627706   2.20362385 
C    0.61318645   1.82252455   1.81541857 
C    0.58215144   3.22818002   2.35158586 
H    0.76554405   3.94338102   1.54683066 
H    1.38597821   3.36766393   3.07739722 
H   -0.36028823   3.44729114   2.83570155 
H    2.17472814  -2.50812879  -0.57898440 
H   -0.33007205  -3.35033362  -0.14813591 
*
