! EnGrad PBEh-3c
%output 
xyzfile=True 
end 
%scf 
maxiter 250 
end
%output
Print[P_Hirshfeld] = 1
end
% maxcore
4000
*xyz 1 1
Ir   0.44219626  -0.65675597   1.03710851 
C   -0.01793147  -2.60591236   1.92388971 
C    1.14655661  -2.07031828   2.57074261 
C    1.60938021  -2.36314210   0.32492718 
C    0.30065005  -2.82837489   0.55679866 
C    2.13456923  -1.90249957   1.58623642 
N   -0.91360347   0.04740523  -0.39788516 
C   -2.35515740   0.17562169   0.00478064 
C   -2.81955273   1.62145704   0.06087599 
H   -3.84335656   1.65459993   0.43933328 
H   -2.81083185   2.09133957  -0.92154169 
H   -2.21215745   2.21918499   0.73119608 
C   -3.27513608  -0.66073772  -0.87962405 
H   -2.41087503  -0.22478620   1.01272311 
H   -4.27133481  -0.67935435  -0.43524753 
H   -3.39131897  -0.24984748  -1.88374499 
H   -2.93633138  -1.69082728  -0.96901284 
C   -0.61292980   0.28666137  -1.62378614 
C    0.69971784   0.20457078  -2.23276844 
H   -1.43495255   0.54476596  -2.28853780 
C    1.97908790   0.34850592  -1.72146366 
C    2.96135292   0.13212506  -2.69274248 
S    0.75549251  -0.05253674  -3.96310340 
C    2.45188567  -0.07440227  -3.95165676 
H    2.24931049   0.85189784  -0.79444108 
H    4.01986470   0.16584789  -2.49229614 
H    3.01806821  -0.24187767  -4.85555380 
H   -0.90061086  -2.98076578   2.42865644 
H    1.23739961  -1.89496668   3.62822892 
H    3.12561294  -1.50167529   1.73009876 
O    1.46477071   1.43687384   0.97230591 
O   -0.22791584   0.94233643   2.20195349 
C    0.60727697   1.81975828   1.81795071 
C    0.58502162   3.22623950   2.34753062 
H    0.76536808   3.94354288   1.54600022 
H    1.38761868   3.36812415   3.07538061 
H   -0.36043234   3.44874339   2.83613107 
H    2.17854281  -2.50437761  -0.57710217 
H   -0.32632196  -3.34671200  -0.15163726 
*
