! EnGrad PBEh-3c
%output 
xyzfile=True 
end 
%scf 
maxiter 250 
end
%output
Print[P_Hirshfeld] = 1
end
% maxcore
4000
*xyz 1 1
Ir   0.45621496  -0.65346199   1.05012708 
C   -0.02615182  -2.60296899   1.90590858 
C    1.12836047  -2.07376256   2.58025528 
C    1.64579428  -2.36830141   0.34315256 
C    0.31861151  -2.83529909   0.55203881 
C    2.13824044  -1.90134103   1.60187850 
N   -0.91471693   0.05021276  -0.39870256 
C   -2.35373983   0.16808472   0.00312680 
C   -2.81974450   1.61813995   0.07677711 
H   -3.84233711   1.64246986   0.44772252 
H   -2.81716500   2.09626686  -0.90718693 
H   -2.20908678   2.20816081   0.75941271 
C   -3.27929980  -0.65858394  -0.88366590 
H   -2.41192553  -0.24625204   1.01720400 
H   -4.27133981  -0.67941965  -0.43943910 
H   -3.39949849  -0.23612148  -1.88397525 
H   -2.94104981  -1.69252797  -0.98544277 
C   -0.60643819   0.29285941  -1.61849075 
C    0.70445087   0.22370967  -2.22841629 
H   -1.43597624   0.54361681  -2.29443943 
C    1.96462842   0.37346384  -1.77424209 
C    2.96924988   0.12961415  -2.69799680 
S    0.75452611  -0.06005915  -3.93782837 
C    2.44759649  -0.08453652  -3.94947603 
H    2.22315600   0.81247751  -0.77449698 
H    4.01777967   0.16831681  -2.48852550 
H    3.01014340  -0.23811244  -4.85407133 
H   -0.91592722  -2.96802224   2.39336537 
H    1.20163008  -1.87645605   3.62919626 
H    3.11968664  -1.49415330   1.77393261 
O    1.44881624   1.38185339   0.95886931 
O   -0.22337391   0.96279713   2.20360961 
C    0.60409671   1.81442497   1.81070507 
C    0.59584786   3.21759223   2.32856374 
H    0.76524583   3.94398387   1.53710496 
H    1.39729519   3.36825938   3.05839666 
H   -0.35011392   3.45348837   2.83205702 
H    2.20738537  -2.47786090  -0.56598573 
H   -0.30343680  -3.32335848  -0.17957921 
*
