! EnGrad PBEh-3c
%output 
xyzfile=True 
end 
%scf 
maxiter 250 
end
%output
Print[P_Hirshfeld] = 1
end
% maxcore
4000
*xyz 1 1
Ir   0.46313800  -0.65155173   1.05439817 
C   -0.02891638  -2.60217132   1.89675101 
C    1.11945843  -2.07405264   2.58000290 
C    1.65845340  -2.37143336   0.35188088 
C    0.33462687  -2.83556330   0.54688937 
C    2.13894823  -1.90038980   1.61927651 
N   -0.91251109   0.05075754  -0.39594751 
C   -2.35406476   0.16346580   0.00669047 
C   -2.81732670   1.61549899   0.08526802 
H   -3.84321793   1.63520607   0.45420904 
H   -2.82014977   2.09870373  -0.89590509 
H   -2.20893396   2.20016943   0.77479567 
C   -3.27966066  -0.65852935  -0.88811104 
H   -2.41196586  -0.25756651   1.01532270 
H   -4.27283240  -0.67953784  -0.44106138 
H   -3.40432029  -0.22800370  -1.88371924 
H   -2.94463995  -1.69142854  -0.99554722 
C   -0.61010491   0.29833945  -1.61804185 
C    0.69544373   0.23310659  -2.23470327 
H   -1.43255582   0.54188784  -2.29513878 
C    1.97442829   0.39345474  -1.76500062 
C    2.96943094   0.13032731  -2.70551401 
S    0.75083804  -0.06576750  -3.93376681 
C    2.44584826  -0.09082105  -3.95011481 
H    2.20611527   0.78559449  -0.77826322 
H    4.01998717   0.16952879  -2.48548799 
H    3.00526046  -0.23707927  -4.85517758 
H   -0.92771915  -2.96149704   2.37255077 
H    1.17929467  -1.86588913   3.63189651 
H    3.11727936  -1.48939886   1.80091055 
O    1.43896531   1.35509084   0.95409186 
O   -0.22984650   0.96608794   2.20955512 
C    0.61067228   1.81085649   1.79955158 
C    0.60049271   3.21743918   2.32063559 
H    0.76595582   3.94448909   1.52994192 
H    1.40329427   3.36753877   3.04686520 
H   -0.34035307   3.45410140   2.82700497 
H    2.22635959  -2.46225783  -0.55859567 
H   -0.28857312  -3.30992834  -0.19656257 
*
