! EnGrad PBEh-3c
%output 
xyzfile=True 
end 
%scf 
maxiter 250 
end
%output
Print[P_Hirshfeld] = 1
end
% maxcore
4000
*xyz 1 1
Ir   0.46785144  -0.65504264   1.05317737 
C   -0.03147574  -2.60271062   1.88792537 
C    1.11009590  -2.07192046   2.57627856 
C    1.66857353  -2.36939722   0.36203350 
C    0.35303754  -2.83124632   0.54166140 
C    2.13825240  -1.89993499   1.64023076 
N   -0.90950244   0.05195247  -0.39039155 
C   -2.35254881   0.15825461   0.01048121 
C   -2.81539079   1.61029360   0.09503004 
H   -3.84392540   1.62774861   0.46239089 
H   -2.82167183   2.10090010  -0.88114091 
H   -2.21007803   2.19046632   0.78977288 
C   -3.27997156  -0.65747817  -0.89237400 
H   -2.41159987  -0.26872922   1.01047902 
H   -4.27455511  -0.68007609  -0.44265399 
H   -3.40895651  -0.21928690  -1.88327477 
H   -2.94863623  -1.68901726  -1.00699302 
C   -0.61119226   0.30266470  -1.61589013 
C    0.68669794   0.24600808  -2.24246565 
H   -1.42919307   0.54010295  -2.29553847 
C    1.97607145   0.40410386  -1.74668454 
C    2.96740941   0.13754624  -2.71658007 
S    0.74655480  -0.07254111  -3.93593370 
C    2.44412350  -0.09746086  -3.94722075 
H    2.19281599   0.76069521  -0.78200569 
H    4.02455953   0.17031907  -2.48343886 
H    3.00026167  -0.23823641  -4.85962989 
H   -0.94185325  -2.95406026   2.34903366 
H    1.15411311  -1.85492622   3.63729443 
H    3.11614868  -1.48415376   1.83140175 
O    1.42471974   1.33409399   0.95583778 
O   -0.23763824   0.96627128   2.21617339 
C    0.61848028   1.80327927   1.78665659 
C    0.60584453   3.21729612   2.31123533 
H    0.76769140   3.94555495   1.51965810 
H    1.41087363   3.36564816   3.03346245 
H   -0.32742700   3.45187191   2.81911494 
H    2.24821651  -2.44522442  -0.54923524 
H   -0.27104566  -3.29538230  -0.21571937 
*
