! EnGrad PBEh-3c
%output 
xyzfile=True 
end 
%scf 
maxiter 250 
end
%output
Print[P_Hirshfeld] = 1
end
% maxcore
4000
*xyz 1 1
Ir   0.46884768  -0.66435994   1.04981877 
C   -0.04009205  -2.60762031   1.85767168 
C    1.07494450  -2.06312230   2.58913316 
C    1.71282983  -2.34412498   0.38992994 
C    0.38771439  -2.81731726   0.52149628 
C    2.14234681  -1.89664365   1.69077822 
N   -0.90217289   0.05356947  -0.38313101 
C   -2.34853386   0.14626005   0.01165878 
C   -2.81541319   1.59084246   0.12773574 
H   -3.84351412   1.60498710   0.48993537 
H   -2.82027195   2.10592711  -0.83387833 
H   -2.21504867   2.15979749   0.83191629 
C   -3.28254048  -0.65008828  -0.90107993 
H   -2.40942815  -0.30327238   1.00049540 
H   -4.27543357  -0.68199256  -0.44756201 
H   -3.42032109  -0.19269903  -1.88225476 
H   -2.95929158  -1.68108792  -1.04265689 
C   -0.60767825   0.31112665  -1.60958815 
C    0.67729027   0.27844156  -2.25298861 
H   -1.42756125   0.53636082  -2.29221674 
C    1.96480999   0.40058348  -1.75085296 
C    2.95970447   0.16675419  -2.71828623 
S    0.73513584  -0.08782666  -3.95157423 
C    2.43747087  -0.10908573  -3.94602262 
H    2.17345359   0.70829494  -0.75411619 
H    4.02337856   0.17334457  -2.48655766 
H    2.98386205  -0.24857637  -4.87267443 
H   -0.98290182  -2.93200787   2.27674158 
H    1.07624208  -1.82717393   3.64467451 
H    3.10999510  -1.47090390   1.92444990 
O    1.40716077   1.28965443   0.95002532 
O   -0.25168088   0.96025301   2.22667629 
C    0.60809003   1.78213122   1.77985521 
C    0.62957271   3.20910035   2.27362573 
H    0.77571360   3.94614565   1.48314037 
H    1.43856955   3.35767292   2.99217720 
H   -0.29423043   3.44117417   2.79496962 
H    2.31191271  -2.39555872  -0.50966981 
H   -0.20989746  -3.25219059  -0.26884559 
*
