! EnGrad PBEh-3c
%output 
xyzfile=True 
end 
%scf 
maxiter 250 
end
%output
Print[P_Hirshfeld] = 1
end
% maxcore
4000
*xyz 0 1
Pd   0.38094791   0.18025080  -0.17086073 
O    1.96209124   1.30746894   0.62031240 
C    1.77342083   2.61804465   0.39888775 
O    0.72853327   3.00753098  -0.08895308 
C    2.94012899   3.54680282   0.68034569 
H    2.55988088   4.47975374   1.12824047 
H    3.37903535   3.82759355  -0.27923727 
H    3.69125341   3.12049317   1.31244285 
N   -1.31118475  -0.93202227  -0.94446942 
C   -0.96741187  -2.26027551  -1.43214435 
H   -0.24429484  -2.20267642  -2.21505210 
H   -1.85032997  -2.73955333  -1.87864285 
H   -0.55722389  -2.84681503  -0.63416290 
C   -1.87683531  -0.16917827  -2.04662610 
H   -2.02730811   0.85732555  -1.77049978 
H   -2.82716552  -0.59837785  -2.35539364 
H   -1.21553198  -0.20402809  -2.89817841 
C   -1.80081128  -1.10737662   1.48887420 
C   -2.24106838  -2.01343991   2.46093841 
C   -1.90039454  -1.86359424   3.80244979 
C   -1.08340019  -0.86479742   4.18118970 
C   -0.69466583   0.06888534   3.23751523 
C   -1.04505692  -0.05217233   1.88738677 
H   -0.80092240  -0.74184346   5.22341765 
H   -0.14942624   0.86514768   3.61879015 
H   -2.93961689  -2.75313147   2.22197467 
H   -2.29006726  -2.51484536   4.55114450 
H   -1.04721764   3.84472689   0.86445602 
C   -2.36472175  -1.09078193   0.13047149 
H   -3.06343954  -0.26112167   0.08086155 
H   -2.98625377  -1.95933487  -0.05725144 
O    1.50782846   0.52270508  -1.87540155 
C    2.19614791  -0.32806212  -2.48310481 
O    2.08595147  -1.44457552  -2.31669660 
C    3.28878359   0.10249251  -3.45145077 
H    3.65234552  -0.74887619  -3.99012773 
H    4.12528071   0.48479612  -2.86002649 
H    3.01406788   0.86522120  -4.14264454 
*
