! EnGrad PBEh-3c
%output 
xyzfile=True 
end 
%scf 
maxiter 250 
end
%output
Print[P_Hirshfeld] = 1
end
% maxcore
4000
*xyz 0 1
Pd   0.38916897   0.15449784  -0.20472469 
O    1.96351454   1.33982014   0.61382124 
C    1.83599461   2.57575332   0.40992750 
O    0.75011376   3.01890987  -0.09148203 
C    2.95138555   3.54342726   0.68625748 
H    2.59528606   4.47183620   1.13958233 
H    3.40339841   3.81020433  -0.27088986 
H    3.70300618   3.09158394   1.31833144 
N   -1.29154934  -0.93770583  -0.91511332 
C   -0.94738655  -2.29047182  -1.37856378 
H   -0.19414497  -2.26760246  -2.14881761 
H   -1.80278574  -2.79400936  -1.84978606 
H   -0.54276871  -2.85994302  -0.55375595 
C   -1.84866534  -0.22594095  -2.06875821 
H   -2.00303660   0.81914959  -1.83514350 
H   -2.80280142  -0.65824876  -2.38936902 
H   -1.19631667  -0.28694409  -2.93120000 
C   -1.79717761  -1.13619574   1.48932501 
C   -2.31620391  -1.96524299   2.47430479 
C   -1.97455666  -1.83833581   3.80940368 
C   -1.08532668  -0.87165911   4.18488787 
C   -0.63426832   0.00817421   3.22023856 
C   -1.05213081  -0.05459734   1.89693905 
H   -0.80022583  -0.75155124   5.22314701 
H   -0.05087713   0.81493829   3.60811509 
H   -3.06768462  -2.69712120   2.25007942 
H   -2.39691520  -2.46492360   4.57640244 
H   -1.00758785   3.87198180   0.83906820 
C   -2.36253520  -1.07041605   0.11632940 
H   -3.05315806  -0.22353372   0.06652871 
H   -3.02233725  -1.92672812  -0.05905687 
O    1.47964017   0.55938840  -1.89401921 
C    2.19122460  -0.30434769  -2.49676164 
O    2.13610280  -1.44885441  -2.17290182 
C    3.24034124   0.16831393  -3.48468933 
H    3.59630279  -0.66598307  -4.07627576 
H    4.09943895   0.55360121  -2.93055830 
H    2.91590586   0.93945682  -4.17116667 
*
