! EnGrad PBEh-3c
%output 
xyzfile=True 
end 
%scf 
maxiter 250 
end
%output
Print[P_Hirshfeld] = 1
end
% maxcore
4000
*xyz 0 1
Pd   0.36243004   0.26107567  -0.07345583 
O    1.93443975   1.30155560   0.62596300 
C    1.62662913   2.63438054   0.38305852 
O    0.64650892   2.97938170  -0.08745803 
C    2.87879254   3.57299549   0.65733489 
H    2.45353668   4.50053120   1.09023941 
H    3.30178882   3.88077784  -0.30586745 
H    3.65673682   3.20452990   1.29794644 
N   -1.37158344  -0.90057387  -1.00455627 
C   -1.04550143  -2.16314037  -1.60658315 
H   -0.39595537  -1.99987285  -2.43186404 
H   -1.99883692  -2.57127850  -1.97141369 
H   -0.59949367  -2.81054711  -0.88353906 
C   -1.96367987   0.00458701  -1.97601540 
H   -2.10542228   0.98715608  -1.56309535 
H   -2.90918779  -0.40923726  -2.25457887 
H   -1.27717872   0.05971616  -2.80009026 
C   -1.80976694  -1.04734014   1.49183844 
C   -1.98711251  -2.13846536   2.42918874 
C   -1.67996121  -1.96455036   3.75626252 
C   -1.06599542  -0.82223275   4.18145051 
C   -0.88683760   0.23921075   3.26768434 
C   -1.02318079  -0.02217869   1.87961553 
H   -0.80374195  -0.70986871   5.22131549 
H   -0.44686076   1.04860522   3.66135123 
H   -2.55080179  -2.95006606   2.12823689 
H   -1.95457997  -2.68228273   4.47864522 
H   -1.18060810   3.76252724   0.94690598 
C   -2.36024302  -1.14833800   0.15452601 
H   -3.10148453  -0.37397794   0.12424118 
H   -2.87871241  -2.06800936  -0.04881852 
O    1.58292498   0.44586415  -1.78468702 
C    2.23063133  -0.31791680  -2.51414892 
O    1.91004836  -1.58512734  -2.72456963 
C    3.45174126  -0.08566919  -3.32253309 
H    3.83143367  -1.01843132  -3.72405965 
H    4.20974273   0.27059736  -2.63726700 
H    3.32369820   0.64120363  -4.06569501 
*
