! EnGrad PBEh-3c
%output 
xyzfile=True 
end 
%scf 
maxiter 250 
end
%output
Print[P_Hirshfeld] = 1
end
% maxcore
4000
*xyz 0 1
Pd   0.38206236   0.18282388  -0.16983632 
O    1.95578710   1.32965027   0.61704825 
C    1.78034988   2.59133514   0.40278631 
O    0.72257787   3.00840415  -0.09041254 
C    2.93209193   3.55128585   0.67857049 
H    2.55761219   4.47946270   1.12646807 
H    3.37639282   3.82896122  -0.28018613 
H    3.69070880   3.12160249   1.31291355 
N   -1.31282064  -0.92783697  -0.93888529 
C   -0.97346332  -2.25662992  -1.43916632 
H   -0.24778173  -2.19644582  -2.22404512 
H   -1.85489183  -2.73481240  -1.88211201 
H   -0.55784496  -2.84681467  -0.64140504 
C   -1.87923367  -0.16467169  -2.04410921 
H   -2.03024846   0.86380202  -1.76283909 
H   -2.83107657  -0.59206698  -2.35354476 
H   -1.21780802  -0.19480943  -2.89635391 
C   -1.80052358  -1.11257988   1.48999303 
C   -2.22873865  -2.01128168   2.46231393 
C   -1.89625967  -1.87188086   3.79527992 
C   -1.08018886  -0.85852267   4.18397429 
C   -0.70139568   0.06957864   3.23284860 
C   -1.04443653  -0.04598118   1.89233484 
H   -0.80116034  -0.74047294   5.22266024 
H   -0.15612086   0.87704182   3.62226408 
H   -2.93030854  -2.76434838   2.21769636 
H   -2.27935223  -2.52269287   4.55042072 
H   -1.05357283   3.84289119   0.86772911 
C   -2.36192599  -1.09112599   0.12648122 
H   -3.06600217  -0.26351849   0.08186741 
H   -2.98416493  -1.96427757  -0.05633574 
O    1.50709100   0.52921615  -1.86496112 
C    2.20169805  -0.30795406  -2.50138279 
O    2.07602250  -1.48507276  -2.31952298 
C    3.29652672   0.10081081  -3.44159177 
H    3.65879540  -0.75965606  -3.98266447 
H    4.12875527   0.47838502  -2.85260792 
H    3.02428809   0.86018768  -4.14313463 
*
