! EnGrad PBEh-3c
%output 
xyzfile=True 
end 
%scf 
maxiter 250 
end
%output
Print[P_Hirshfeld] = 1
end
% maxcore
4000
*xyz 0 1
Pd   0.34466172   0.31296400  -0.00423548 
O    1.88563572   1.28451613   0.63487942 
C    1.62198187   2.64230034   0.39781966 
O    0.51679791   2.98041880  -0.11269554 
C    2.79658901   3.58946993   0.63202297 
H    2.37202033   4.51470253   1.05994736 
H    3.23758160   3.91775234  -0.32576243 
H    3.62666942   3.26592764   1.28636310 
N   -1.41231405  -0.85215987  -1.00393244 
C   -1.12086949  -2.08591199  -1.74653084 
H   -0.50441730  -1.84330424  -2.61167760 
H   -2.11757122  -2.44880389  -2.04810300 
H   -0.62957121  -2.79134506  -1.07807989 
C   -2.02690241   0.14037789  -1.91331239 
H   -2.16906069   1.10060919  -1.39436848 
H   -2.98461764  -0.26063855  -2.18985575 
H   -1.32706544   0.27009103  -2.73494719 
C   -1.79227221  -1.04093237   1.50754542 
C   -1.80154281  -2.21009635   2.38811372 
C   -1.48973393  -2.05127910   3.72424946 
C   -1.06804880  -0.77413304   4.17169136 
C   -1.01358545   0.34128380   3.28655172 
C   -1.01808387   0.02671242   1.87642881 
H   -0.80376183  -0.67818774   5.22407646 
H   -0.66105878   1.23736594   3.70526721 
H   -2.25714899  -3.13315001   2.04634985 
H   -1.69364363  -2.83608145   4.43002329 
H   -1.28637635   3.69854751   1.01150005 
C   -2.34884475  -1.18313759   0.14777258 
H   -3.14038716  -0.45088827   0.15353115 
H   -2.80201034  -2.16085028  -0.03938238 
O    1.66729187   0.41323702  -1.69492644 
C    2.22971127  -0.55786675  -2.49004143 
O    1.72871253  -1.54975541  -3.10108357 
C    3.61046342  -0.20539875  -3.21041094 
H    3.96765802  -1.22413612  -3.51203074 
H    4.29421458   0.11954404  -2.45255563 
H    3.57343182   0.48722734  -4.03044401 
*
