! EnGrad PBEh-3c
%output 
xyzfile=True 
end 
%scf 
maxiter 250 
end
%output
Print[P_Hirshfeld] = 1
end
% maxcore
4000
*xyz 0 1
Pd   0.29859965   0.43275596   0.13479321 
O    1.77155121   1.34274114   0.66437673 
C    1.42061108   2.61550376   0.35692219 
O    0.37227981   2.92674526  -0.09436924 
C    2.64733355   3.64322510   0.58978897 
H    2.17155038   4.54515834   0.98599347 
H    3.07509968   3.99978694  -0.36877720 
H    3.53158031   3.41862946   1.24188021 
N   -1.49725049  -0.73674298  -1.01722625 
C   -1.29261786  -1.88209399  -2.07213899 
H   -0.78024603  -1.46803814  -3.03249696 
H   -2.39930005  -2.16166681  -2.24040985 
H   -0.70589264  -2.74253371  -1.56464329 
C   -2.17294152   0.47432634  -1.74495282 
H   -2.31879083   1.36064827  -0.98808641 
H   -3.16562666   0.10244779  -2.04245712 
H   -1.45941131   0.78108020  -2.57389958 
C   -1.72942727  -1.04626300   1.52444295 
C   -1.38584981  -2.39183019   2.30479096 
C   -1.02530340  -2.24276220   3.63548433 
C   -1.08711827  -0.67103826   4.16665514 
C   -1.28055745   0.59157791   3.33138156 
C   -1.03584863   0.15687256   1.88517878 
H   -0.81394481  -0.59470508   5.21737849 
H   -1.20889483   1.67793336   3.80398603 
H   -1.51838855  -3.55567234   1.84871435 
H   -1.04150519  -3.20271795   4.30393240 
H   -1.53999990   3.53319741   1.16688762 
C   -2.32533847  -1.26700757   0.15239731 
H   -3.23780847  -0.63911391   0.21878446 
H   -2.60621361  -2.37579860  -0.01598110 
O    1.95920378   0.14101348  -1.51674273 
C    2.32620658  -0.28376963  -2.49585358 
O    1.09992382  -2.10854485  -3.97311273 
C    3.96150450  -0.56490395  -2.88259074 
H    4.29904579  -1.68598492  -3.00704286 
H    4.52028557  -0.22477813  -1.99062650 
H    4.17584592   0.10073056  -3.93466587 
*
