! EnGrad PBEh-3c
%output 
xyzfile=True 
end 
%scf 
maxiter 250 
end
%output
Print[P_Hirshfeld] = 1
end
% maxcore
4000
*xyz 0 1
Pd   1.97784268   0.79018414  -0.43507211 
O   -0.35154719   2.40820788  -0.33071969 
O    0.02672709   0.24078580  -0.20223993 
O    3.75643712   1.89015208  -0.78420576 
O    3.27516516   1.11199888   1.17364865 
C   -0.76206318   1.19033020  -0.25810541 
C   -2.23891936   1.03372483  -0.12327415 
H   -2.68849647   1.88182056   0.38866097 
H   -2.45561221   0.11071806   0.40566046 
H   -2.67391803   0.97912871  -1.12216406 
C    4.12091745   1.59663153   0.38931842 
C    5.55985090   1.90691250   0.66734699 
H    5.75130365   1.77961421   1.72971806 
H    5.83176402   2.91797629   0.36885052 
H    6.20346979   1.22234746   0.11107566 
C    2.04705592   0.59362417  -3.03170738 
C    0.74574853   0.36803671  -3.43134372 
C    2.94065401  -0.47202811  -3.08530150 
C    0.39040492  -0.82341019  -4.04711618 
C    1.30566825  -1.84953959  -4.15976922 
C    2.52466564  -1.72875113  -3.50898460 
H   -0.57316392  -0.88329953  -4.54019751 
H    1.06489105  -2.72719857  -4.74872160 
H    0.78526704   3.19636198  -2.07749539 
H   -0.00763497   1.14747385  -3.42108911 
H    3.99465372  -0.33926246  -2.87428239 
H    3.25046247  -2.52905619  -3.59914594 
*
