! EnGrad PBEh-3c
%output 
xyzfile=True 
end 
%scf 
maxiter 250 
end
%output
Print[P_Hirshfeld] = 1
end
% maxcore
4000
*xyz 0 1
Pd   1.79481679   1.28509317  -0.94408517 
O   -0.33369916   2.42523418  -0.45506440 
O    0.12056991   0.33314813  -0.31963356 
O    3.70816541   1.81355780  -0.83006758 
O    3.37312401   0.94537005   1.20407986 
C   -0.72089342   1.26959154  -0.26814006 
C   -2.19055220   0.99190883  -0.11450185 
H   -2.68215335   1.82977279   0.35758238 
H   -2.47840915   0.07464851   0.39235674 
H   -2.60852880   0.92229526  -1.11735275 
C    4.09221631   1.48416310   0.38024618 
C    5.53441688   1.83780987   0.65695455 
H    5.79783972   1.67583170   1.70137179 
H    5.78696525   2.86285262   0.38075046 
H    6.16015498   1.18235552   0.05458555 
C    1.82708149   0.53339148  -2.73147756 
C    0.63390060   0.42061565  -3.44054857 
C    2.90848392  -0.29683741  -3.02214519 
C    0.37402642  -0.77859995  -4.09715517 
C    1.32868481  -1.79181667  -4.08676844 
C    2.60590906  -1.52480413  -3.61183297 
H   -0.63588350  -0.98535174  -4.45076624 
H    1.06969578  -2.79224704  -4.43245787 
H    1.19245083   2.53696379  -2.04327205 
H   -0.13096587   1.19328090  -3.39994152 
H    3.94470920  -0.09081977  -2.75785211 
H    3.32616468  -2.33555345  -3.53616395 
*
