! EnGrad PBEh-3c
%output 
xyzfile=True 
end 
%scf 
maxiter 250 
end
%output
Print[P_Hirshfeld] = 1
end
% maxcore
4000
*xyz 0 1
Pd   1.89529303   1.36270848  -0.78069258 
O   -0.45719679   2.53818727  -0.45718985 
O    0.09780357   0.36953390  -0.49828384 
O    3.76069348   1.88109356  -0.86286766 
O    3.29754174   0.90699007   1.05141903 
C   -0.75772651   1.30506024  -0.30745465 
C   -2.20727144   0.98650813  -0.11177920 
H   -2.69526053   1.83338208   0.36933554 
H   -2.41825284   0.05245635   0.40467199 
H   -2.58339305   0.90075660  -1.13631207 
C    4.09908231   1.49375484   0.32609420 
C    5.53673708   1.79605447   0.63575696 
H    5.78218457   1.62792345   1.67836252 
H    5.75263695   2.83019570   0.38007886 
H    6.17356302   1.16292022   0.01590227 
C    1.80871659   0.54297992  -2.78134999 
C    0.57111140   0.37888848  -3.37615340 
C    2.87800459  -0.29149287  -2.97276316 
C    0.35796204  -0.79725462  -4.06040803 
C    1.33737625  -1.77111964  -4.07731138 
C    2.59681359  -1.49327143  -3.59118081 
H   -0.61599720  -0.99112368  -4.45701518 
H    1.08803696  -2.77456667  -4.32623318 
H    1.43354477   2.23134342  -1.97277455 
H   -0.17518752   1.16125190  -3.36183603 
H    3.86327140   0.00294279  -2.65439844 
H    3.38057842  -2.22422968  -3.58776151 
*
