! EnGrad PBEh-3c
%output 
xyzfile=True 
end 
%scf 
maxiter 250 
end
%output
Print[P_Hirshfeld] = 1
end
% maxcore
4000
*xyz 0 1
Pd   1.92582956   0.99948673  -0.70316555 
O   -0.30332384   2.46178226  -0.40448284 
O    0.05805175   0.24988499  -0.20478622 
O    3.65682330   1.78703738  -0.79615635 
O    3.36676536   1.07928098   1.20989489 
C   -0.69499235   1.19802968  -0.21819593 
C   -2.22437121   1.01430936  -0.12131361 
H   -2.68088882   1.85823976   0.37471272 
H   -2.48317482   0.08662816   0.40729868 
H   -2.67480755   0.96125886  -1.13001327 
C    4.10056673   1.59096214   0.40560515 
C    5.55647774   1.89189513   0.68223858 
H    5.78268935   1.75345160   1.75575175 
H    5.80874741   2.88987842   0.37581023 
H    6.18555178   1.21309738   0.10246895 
C    1.94477006   0.54799438  -2.88585698 
C    0.70180380   0.39246092  -3.48519793 
C    2.94207601  -0.42232858  -3.05858252 
C    0.39088879  -0.80179263  -4.08965622 
C    1.29415329  -1.85202485  -4.10324848 
C    2.57555800  -1.65042962  -3.60050692 
H   -0.59494797  -0.91236419  -4.50709351 
H    1.06347011  -2.74977461  -4.67211147 
H    0.86968669   3.03239067  -2.06857424 
H   -0.04274279   1.17435411  -3.40026314 
H    4.00962676  -0.28109788  -2.83713564 
H    3.26698181  -2.49691318  -3.56513131 
*
