! EnGrad PBEh-3c
%output 
xyzfile=True 
end 
%scf 
maxiter 250 
end
%output
Print[P_Hirshfeld] = 1
end
% maxcore
4000
*xyz 0 1
Pd   1.91960666   0.99522378  -0.69603016 
O   -0.30436626   2.45201116  -0.40176332 
O    0.06359552   0.25253166  -0.20844705 
O    3.66815989   1.79715958  -0.79764729 
O    3.35949646   1.07327519   1.21150210 
C   -0.70788841   1.20321921  -0.22539693 
C   -2.22016529   1.01605154  -0.12065868 
H   -2.68185481   1.85824953   0.37458197 
H   -2.48208521   0.08731370   0.40656983 
H   -2.67155419   0.96060953  -1.12887725 
C    4.10222892   1.58465534   0.40193875 
C    5.55551709   1.89163500   0.67703773 
H    5.78159203   1.75110812   1.75274360 
H    5.80999610   2.89055293   0.37586305 
H    6.18506879   1.21231661   0.10101307 
C    1.94730922   0.55144035  -2.88475539 
C    0.70449444   0.39129749  -3.48034695 
C    2.93859931  -0.42029044  -3.06157021 
C    0.38980461  -0.80288196  -4.08704150 
C    1.29769533  -1.84899502  -4.10628558 
C    2.57438137  -1.64940185  -3.59346566 
H   -0.59686350  -0.91432739  -4.50649783 
H    1.06361037  -2.75035235  -4.66594705 
H    0.87521733   3.02528151  -2.07036829 
H   -0.04632045   1.17575988  -3.40224515 
H    4.00743177  -0.27573201  -2.83707152 
H    3.26820689  -2.49203231  -3.56513699 
*
