! EnGrad PBEh-3c
%output 
xyzfile=True 
end 
%scf 
maxiter 250 
end
%output
Print[P_Hirshfeld] = 1
end
% maxcore
4000
*xyz 0 1
Pd   1.90953176   1.02892044  -0.73628679 
O   -0.29859609   2.44796775  -0.41286704 
O    0.08409724   0.23572382  -0.21197016 
O    3.65928508   1.78798417  -0.80116366 
O    3.36196765   1.05751303   1.22572462 
C   -0.71953265   1.23671331  -0.22641650 
C   -2.21548420   1.00730650  -0.12107150 
H   -2.68105467   1.85626285   0.37305411 
H   -2.48561357   0.08606236   0.40514005 
H   -2.66760577   0.95726981  -1.12776669 
C    4.10896013   1.58423282   0.39338169 
C    5.55294413   1.88352632   0.68305086 
H    5.78527327   1.74514829   1.74919881 
H    5.80748877   2.88947332   0.37567953 
H    6.18200558   1.20969308   0.09725210 
C    1.92987266   0.54787926  -2.85961753 
C    0.69571331   0.40098857  -3.48244920 
C    2.94311461  -0.40685581  -3.05648133 
C    0.38851127  -0.80232446  -4.09311281 
C    1.29846240  -1.84715415  -4.09968951 
C    2.58053003  -1.63945434  -3.60462392 
H   -0.60159958  -0.92106720  -4.49997949 
H    1.06390313  -2.75430074  -4.64628676 
H    0.89467850   2.98849413  -2.06866704 
H   -0.05226370   1.17772199  -3.40082012 
H    4.00379672  -0.26102222  -2.83118770 
H    3.27193166  -2.48052427  -3.55935824 
*
