! EnGrad PBEh-3c
%output 
xyzfile=True 
end 
%scf 
maxiter 250 
end
%output
Print[P_Hirshfeld] = 1
end
% maxcore
4000
*xyz 0 1
Pd   1.82671999   1.16545808  -0.87219030 
O   -0.31420236   2.37524883  -0.43695513 
O    0.12083946   0.28049567  -0.26300074 
O    3.69175610   1.80385884  -0.82331381 
O    3.36848813   0.98640292   1.23514518 
C   -0.72133013   1.32129493  -0.26468526 
C   -2.19645752   0.99087328  -0.11910306 
H   -2.68062985   1.84118389   0.36338885 
H   -2.48710611   0.08191487   0.39575523 
H   -2.63102263   0.93754642  -1.11635912 
C    4.10316898   1.52231894   0.38106458 
C    5.54068273   1.85301782   0.67612929 
H    5.79319974   1.70582970   1.71683886 
H    5.79912389   2.88037393   0.37739453 
H    6.16748004   1.19375179   0.07287405 
C    1.86562765   0.54049336  -2.76051233 
C    0.66336351   0.42476259  -3.46017010 
C    2.93256586  -0.33820813  -3.04082657 
C    0.38144100  -0.79069895  -4.09944052 
C    1.31891746  -1.81701971  -4.09128923 
C    2.59762169  -1.57772526  -3.61278787 
H   -0.62811390  -0.96109970  -4.47006988 
H    1.06594239  -2.77839154  -4.52228975 
H    1.04367940   2.75160987  -2.06298620 
H   -0.09683468   1.18860194  -3.40236884 
H    3.97135404  -0.16381788  -2.79462319 
H    3.30048718  -2.39922764  -3.54074173 
*
