! EnGrad PBEh-3c
%output 
xyzfile=True 
end 
%scf 
maxiter 250 
end
%output
Print[P_Hirshfeld] = 1
end
% maxcore
4000
*xyz -1 1
Pd  -2.18622194  -1.64258904   0.75118265 
Cl  -3.46671192  -3.32138271  -0.20680636 
Cl  -0.70316014  -4.65668011   1.42941726 
Cl  -4.01059404  -0.33429952   0.81098180 
N   -0.95363261  -0.09008924   1.41831930 
C   -1.26539876   0.46721524   2.57262676 
C   -0.78071916   1.70782733   2.99169874 
C    0.08857635   2.36618863   2.16104912 
C   -0.08397507   0.52080563   0.58787378 
C    0.45267346   1.77495299   0.94456866 
H    0.49216749   3.32760616   2.45789644 
H   -1.95100984  -0.08617726   3.20577076 
H   -1.08307646   2.12258874   3.94357566 
C    0.33235640  -0.15961774  -0.60654156 
C    1.35622414   2.42880173   0.05407294 
C    1.70032853   1.84183199  -1.11076873 
C    1.21657628   0.54147251  -1.45771809 
H    1.75425203   3.40401166   0.31733324 
H    2.37925248   2.36327123  -1.77890474 
C   -0.08459266  -1.47455789  -0.91498096 
C    1.65990492  -0.05544390  -2.64822313 
C    0.32011965  -1.98513876  -2.13462237 
C    1.24084067  -1.32872646  -2.95942661 
H    2.32949546   0.46940172  -3.31045638 
H    1.59979382  -1.77514249  -3.87961855 
H   -0.30899429  -3.47627831  -0.16963368 
H   -0.04447982  -2.94985210  -2.46867096 
*
