! EnGrad PBEh-3c
%output 
xyzfile=True 
end 
%scf 
maxiter 250 
end
%output
Print[P_Hirshfeld] = 1
end
% maxcore
4000
*xyz -1 1
Pd  -2.06303342  -1.63808800   0.53786296 
Cl  -3.48634840  -3.27132012  -0.18518540 
Cl  -0.60489483  -4.32322799   1.11514212 
Cl  -3.98141574  -0.26533822   0.81799907 
N   -0.97026296  -0.11559055   1.41438106 
C   -1.28937210   0.43906930   2.57574728 
C   -0.76481114   1.66737844   3.00272903 
C    0.08231857   2.34369542   2.16412790 
C   -0.06619836   0.47712742   0.61403349 
C    0.44797877   1.75346392   0.94904082 
H    0.48713022   3.31390654   2.43644723 
H   -1.97934734  -0.10504949   3.21424683 
H   -1.07396396   2.08651431   3.94990058 
C    0.34195791  -0.22745434  -0.58297637 
C    1.33815291   2.42586342   0.04857990 
C    1.67753281   1.83780066  -1.11250158 
C    1.20036332   0.51721931  -1.44905834 
H    1.73214698   3.40583246   0.32260989 
H    2.35578356   2.34983441  -1.80161316 
C   -0.09805426  -1.55672949  -0.86064086 
C    1.65494795  -0.06011054  -2.65213912 
C    0.33607387  -2.03382671  -2.10016107 
C    1.20304489  -1.32103127  -2.97107125 
H    2.33632088   0.48582946  -3.30705225 
H    1.57996826  -1.79090520  -3.88316228 
H   -0.40489811  -3.39580127   0.20898399 
H    0.00012706  -3.00060176  -2.45947960 
*
