! EnGrad PBEh-3c
%output 
xyzfile=True 
end 
%scf 
maxiter 250 
end
%output
Print[P_Hirshfeld] = 1
end
% maxcore
4000
*xyz -1 1
Pd  -2.05628388  -1.62334257   0.52014106 
Cl  -3.48862157  -3.26976655  -0.18795102 
Cl  -0.59482453  -4.29860372   1.09638134 
Cl  -3.97169874  -0.26256359   0.81979673 
N   -0.96815725  -0.11843547   1.41234096 
C   -1.29164247   0.43457268   2.57600520 
C   -0.76406175   1.66339599   3.00204380 
C    0.08093986   2.33849050   2.16495892 
C   -0.06470044   0.47334642   0.61434891 
C    0.44823421   1.74989851   0.94929823 
H    0.48589050   3.31202706   2.43439965 
H   -1.98289131  -0.10686944   3.21346244 
H   -1.07292789   2.08201866   3.95135210 
C    0.34500911  -0.23161342  -0.57977665 
C    1.33670602   2.42205889   0.04459352 
C    1.67275494   1.83582872  -1.10877574 
C    1.20142262   0.51339034  -1.44816304 
H    1.72912281   3.40571302   0.32307898 
H    2.35162189   2.34694825  -1.80343213 
C   -0.09857066  -1.55625780  -0.85671380 
C    1.64941749  -0.06397941  -2.65192086 
C    0.33614995  -2.03974548  -2.09605799 
C    1.20195799  -1.32178411  -2.96754710 
H    2.33498473   0.48623449  -3.30522145 
H    1.57524508  -1.79200961  -3.88263007 
H   -0.40973777  -3.37375692   0.23170908 
H    0.00531996  -3.00675915  -2.45782233 
*
