! EnGrad PBEh-3c
%output 
xyzfile=True 
end 
%scf 
maxiter 250 
end
%output
Print[P_Hirshfeld] = 1
end
% maxcore
4000
*xyz -1 1
Pd  -2.06155906  -1.63486704   0.53399183 
Cl  -3.48684495  -3.27098076  -0.18578951 
Cl  -0.60269509  -4.31784912   1.11104406 
Cl  -3.97929318  -0.26473214   0.81839175 
N   -0.96980299  -0.11621199   1.41393542 
C   -1.28986804   0.43808707   2.57580362 
C   -0.76464744   1.66650853   3.00257935 
C    0.08201741   2.34255847   2.16430943 
C   -0.06587116   0.47630151   0.61410239 
C    0.44803457   1.75268510   0.94909705 
H    0.48685942   3.31349599   2.43599996 
H   -1.98012147  -0.10544704   3.21407549 
H   -1.07373764   2.08553229   3.95021765 
C    0.34262441  -0.22836284  -0.58227743 
C    1.33783685   2.42503237   0.04770912 
C    1.67648914   1.83736992  -1.11168772 
C    1.20059471   0.51638292  -1.44886277 
H    1.73148638   3.40580637   0.32271236 
H    2.35487449   2.34920396  -1.80201049 
C   -0.09816706  -1.55662645  -0.85978304 
C    1.65373989  -0.06095565  -2.65209144 
C    0.33609049  -2.03511959  -2.09926480 
C    1.20280747  -1.32119572  -2.97030144 
H    2.33602901   0.48591793  -3.30665234 
H    1.57893654  -1.79114644  -3.88304603 
H   -0.40595527  -3.39098595   0.21394801 
H    0.00126138  -3.00194677  -2.45911759 
*
