! EnGrad PBEh-3c
%output 
xyzfile=True 
end 
%scf 
maxiter 250 
end
%output
Print[P_Hirshfeld] = 1
end
% maxcore
4000
*xyz -1 1
Pd  -2.05807744  -1.62726089   0.52485032 
Cl  -3.48801752  -3.27017938  -0.18721611 
Cl  -0.59750052  -4.30514716   1.10136666 
Cl  -3.97428085  -0.26330090   0.81931903 
N   -0.96871680  -0.11767948   1.41288308 
C   -1.29103916   0.43576757   2.57593666 
C   -0.76426088   1.66445425   3.00222589 
C    0.08130622   2.33987361   2.16473809 
C   -0.06509848   0.47435115   0.61426509 
C    0.44816634   1.75084595   0.94922983 
H    0.48621993   3.31252649   2.43494375 
H   -1.98194957  -0.10638582   3.21367088 
H   -1.07320320   2.08321329   3.95096639 
C    0.34419831  -0.23050822  -0.58062692 
C    1.33709051   2.42306987   0.04565282 
C    1.67402456   1.83635273  -1.10976581 
C    1.20114113   0.51440782  -1.44840095 
H    1.72992643   3.40574476   0.32295433 
H    2.35272777   2.34771519  -1.80294877 
C   -0.09843344  -1.55638314  -0.85775734 
C    1.65088710  -0.06295133  -2.65197886 
C    0.33612973  -2.03817268  -2.09714831 
C    1.20224681  -1.32158405  -2.96848358 
H    2.33533978   0.48612686  -3.30570795 
H    1.57650018  -1.79171613  -3.88277149 
H   -0.40845172  -3.37961479   0.22567032 
H    0.00394004  -3.00512294  -2.45826271 
*
