! EnGrad PBEh-3c
%output 
xyzfile=True 
end 
%scf 
maxiter 250 
end
%output
Print[P_Hirshfeld] = 1
end
% maxcore
4000
*xyz -1 1
Pd  -2.11311387  -1.69475150   0.63995287 
Cl  -3.45245620  -3.28733121  -0.19042232 
Cl  -0.65337576  -4.56412156   1.30021819 
Cl  -4.03987226  -0.30609670   0.84128803 
N   -0.99236719  -0.09826845   1.43357968 
C   -1.28485378   0.46939080   2.59246361 
C   -0.77103936   1.69233490   2.98687963 
C    0.07715748   2.35654129   2.16571523 
C   -0.07167175   0.49824859   0.60740528 
C    0.46445677   1.80155786   0.94345315 
H    0.49542858   3.32753588   2.44645282 
H   -1.95066671  -0.07944541   3.19678681 
H   -1.08434428   2.11763747   3.94190377 
C    0.34067849  -0.16234080  -0.59431345 
C    1.35645981   2.42935278   0.04944303 
C    1.69741568   1.85092667  -1.10084599 
C    1.23419387   0.55623363  -1.49123318 
H    1.74986311   3.39870221   0.32014475 
H    2.37565696   2.35213915  -1.78327395 
C   -0.12950240  -1.55111749  -0.88375009 
C    1.65160666  -0.08376548  -2.63035044 
C    0.33593384  -2.00588948  -2.14132869 
C    1.22615537  -1.29228196  -2.97674092 
H    2.34085324   0.47881752  -3.31040142 
H    1.59233511  -1.78569609  -3.87761883 
H   -0.35564768  -3.46764812  -0.02303815 
H   -0.04311685  -2.95236267  -2.46124573 
*
