! EnGrad PBEh-3c
%output 
xyzfile=True 
end 
%scf 
maxiter 250 
end
%output
Print[P_Hirshfeld] = 1
end
% maxcore
4000
*xyz -1 1
Pd  -2.08264476  -1.69300748   0.58815139 
Cl  -3.45835663  -3.27565372  -0.18386208 
Cl  -0.63104867  -4.48228500   1.22121059 
Cl  -4.03325863  -0.28819913   0.84088588 
N   -0.99154310  -0.10255441   1.42895329 
C   -1.28419337   0.46139804   2.57982475 
C   -0.77447373   1.68392080   3.00598364 
C    0.08716089   2.36461940   2.15942922 
C   -0.06873291   0.49937503   0.62399113 
C    0.45317254   1.77922060   0.94553765 
H    0.49164197   3.31994242   2.44153059 
H   -1.96326539  -0.08840917   3.20612022 
H   -1.07981618   2.10693674   3.93800634 
C    0.34221000  -0.19094259  -0.59954181 
C    1.35089476   2.43992878   0.06006966 
C    1.70084031   1.84383190  -1.12342085 
C    1.21219752   0.55292756  -1.45812617 
H    1.74481380   3.39862131   0.32017882 
H    2.36917176   2.35029712  -1.78656911 
C   -0.12508365  -1.56523335  -0.87999971 
C    1.68501281  -0.04644721  -2.65551956 
C    0.33714415  -2.00714493  -2.12029644 
C    1.20273650  -1.32717516  -2.98760528 
H    2.33224930   0.47370409  -3.30012781 
H    1.58909369  -1.78507554  -3.87627847 
H   -0.37993415  -3.45629768   0.07665899 
H   -0.03224797  -2.96834622  -2.46250886 
*
