! EnGrad PBEh-3c
%output 
xyzfile=True 
end 
%scf 
maxiter 250 
end
%output
Print[P_Hirshfeld] = 1
end
% maxcore
4000
*xyz -1 1
Pd  -2.08526380  -1.67552178   0.58843181 
Cl  -3.46700714  -3.27828889  -0.18515175 
Cl  -0.63062026  -4.45278622   1.20728581 
Cl  -4.01848199  -0.28529075   0.83129509 
N   -0.97970285  -0.10395499   1.42074726 
C   -1.28439049   0.45539110   2.57755236 
C   -0.76993720   1.68408733   3.00326240 
C    0.08502731   2.35930483   2.16213427 
C   -0.07052915   0.49553527   0.61933129 
C    0.44969829   1.76956958   0.94748732 
H    0.49067772   3.31946540   2.44188595 
H   -1.96740668  -0.09342384   3.21003401 
H   -1.07869665   2.10309029   3.94200067 
C    0.33794202  -0.20256183  -0.59543098 
C    1.34887797   2.43315670   0.05240363 
C    1.69377701   1.84516892  -1.11574315 
C    1.20733887   0.54094784  -1.45422459 
H    1.74322149   3.40312679   0.32114051 
H    2.36822793   2.35286848  -1.79133586 
C   -0.11150047  -1.55225609  -0.87880583 
C    1.67478981  -0.05253501  -2.65523997 
C    0.33264151  -2.01401008  -2.11417512 
C    1.20701037  -1.32173907  -2.98025309 
H    2.33491284   0.47789193  -3.30466203 
H    1.58901525  -1.78659788  -3.88018751 
H   -0.38185198  -3.44764176   0.09628651 
H   -0.02426060  -2.97472303  -2.46262367 
*
