! EnGrad PBEh-3c
%output 
xyzfile=True 
end 
%scf 
maxiter 250 
end
%output
Print[P_Hirshfeld] = 1
end
% maxcore
4000
*xyz -1 1
Pd  -2.07686666  -1.66528403   0.57089863 
Cl  -3.47446320  -3.27522013  -0.18364830 
Cl  -0.62267257  -4.40462347   1.17203854 
Cl  -4.00645625  -0.27695228   0.82494163 
N   -0.97528063  -0.10756284   1.41700826 
C   -1.28638611   0.44950428   2.57704551 
C   -0.76624269   1.67945438   3.00232318 
C    0.08322084   2.35371272   2.16378912 
C   -0.06963822   0.48858232   0.61782247 
C    0.44817935   1.76335411   0.94867953 
H    0.48971078   3.31793225   2.44023772 
H   -1.97165236  -0.09803441   3.21257657 
H   -1.07714451   2.09746263   3.94519468 
C    0.33701456  -0.21395997  -0.59074579 
C    1.34548926   2.42958703   0.04889612 
C    1.68759909   1.84486727  -1.11243182 
C    1.20389443   0.53182882  -1.45280291 
H    1.73980963   3.40529283   0.32194268 
H    2.36495207   2.35304202  -1.79592585 
C   -0.10508521  -1.55323169  -0.87234749 
C    1.66702054  -0.05724192  -2.65403320 
C    0.33283627  -2.02215293  -2.10891886 
C    1.20662462  -1.31747655  -2.97707492 
H    2.33705890   0.48209190  -3.30733653 
H    1.58722357  -1.78875975  -3.88256569 
H   -0.39094126  -3.43461789   0.14056159 
H   -0.01517223  -2.98325317  -2.46164326 
*
