! EnGrad PBEh-3c
%output 
xyzfile=True 
end 
%scf 
maxiter 250 
end
%output
Print[P_Hirshfeld] = 1
end
% maxcore
4000
*xyz -1 1
Pd  -2.01272803  -1.52818794   0.40577880 
Cl  -3.50329068  -3.25974113  -0.20579803 
Cl  -0.52983929  -4.13969938   0.97531500 
Cl  -3.90899342  -0.24465844   0.83139730 
N   -0.95456882  -0.13679416   1.39917586 
C   -1.30629350   0.40555526   2.57766966 
C   -0.75922580   1.63769660   2.99762191 
C    0.07204280   2.30490231   2.17032162 
C   -0.05503409   0.44894701   0.61638435 
C    0.44988261   1.72689032   0.95095932 
H    0.47789041   3.29989843   2.42118625 
H   -2.00576117  -0.11861384   3.20840064 
H   -1.06624195   2.05300754   3.96071899 
C    0.36469900  -0.25845266  -0.55912838 
C    1.32736906   2.39750766   0.01886875 
C    1.64192256   1.82310348  -1.08473226 
C    1.20825849   0.48868139  -1.44238552 
H    1.70960738   3.40494222   0.32610604 
H    2.32476598   2.32832341  -1.81517022 
C   -0.10190312  -1.55321387  -0.83137183 
C    1.61372856  -0.08894583  -2.65051245 
C    0.33664085  -2.07794027  -2.06958017 
C    1.19494403  -1.32664230  -2.94480523 
H    2.32636232   0.48884823  -3.29340700 
H    1.54476564  -1.79913655  -3.87919561 
H   -0.44096890  -3.23150118   0.37835776 
H    0.03883056  -3.04649376  -2.44712766 
*
