! EnGrad PBEh-3c
%output 
xyzfile=True 
end 
%scf 
maxiter 250 
end
%output
Print[P_Hirshfeld] = 1
end
% maxcore
4000
*xyz -1 1
Pd  -2.05280685  -1.61574644   0.51101160 
Cl  -3.48979260  -3.26896623  -0.18937574 
Cl  -0.58963680  -4.28591849   1.08671669 
Cl  -3.96669302  -0.26113423   0.82072279 
N   -0.96707250  -0.11990103   1.41129000 
C   -1.29281205   0.43225624   2.57613808 
C   -0.76367570   1.66134443   3.00169081 
C    0.08022961   2.33580918   2.16538702 
C   -0.06392878   0.47139863   0.61451140 
C    0.44836580   1.74806178   0.94943083 
H    0.48525186   3.31105884   2.43334483 
H   -1.98471700  -0.10780699   3.21305836 
H   -1.07239415   2.07970272   3.95209985 
C    0.34658094  -0.23375598  -0.57812831 
C    1.33596066   2.42009898   0.04253993 
C    1.67029361   1.83481288  -1.10685636 
C    1.20196832   0.51141784  -1.44770183 
H    1.72756491   3.40565149   0.32332062 
H    2.34947800   2.34546144  -1.80436917 
C   -0.09883669  -1.55601480  -0.85469077 
C    1.64656847  -0.06597246  -2.65180843 
C    0.33618913  -2.04279455  -2.09394428 
C    1.20139807  -1.32217193  -2.96573164 
H    2.33429641   0.48644314  -3.30427831 
H    1.57281193  -1.79257855  -3.88235590 
H   -0.41223093  -3.36240074   0.24341595 
H    0.00799509  -3.00993114  -2.45696858 
*
