! EnGrad PBEh-3c
%output 
xyzfile=True 
end 
%scf 
maxiter 250 
end
%output
Print[P_Hirshfeld] = 1
end
% maxcore
4000
%pal nprocs 4
end
*xyz 1 1
Sc   1.69148000  -1.47736000  -1.54143000 
C    0.53759000  -0.77390000   0.25469000 
N   -0.44476000  -1.41618000   0.91369000 
C   -0.93745000  -0.64583000   1.92857000 
C   -0.24356000   0.51473000   1.90574000 
N    0.65182000   0.41381000   0.87901000 
C    1.56466000   1.48424000   0.51834000 
H    2.03512000   1.88367000   1.41347000 
H    1.03331000   2.28042000   0.00126000 
H    2.34836000   1.10255000  -0.13211000 
C   -0.95510000  -2.74249000   0.61366000 
H   -0.29603000  -3.24467000  -0.09002000 
H   -1.94968000  -2.67708000   0.17754000 
H   -0.99706000  -3.33574000   1.52404000 
H   -1.72669000  -0.97534000   2.58256000 
H   -0.31604000   1.38461000   2.53599000 
C   -0.39662000   1.64085000  -2.69436000 
H   -0.67563000   1.10695000  -3.59866000 
H   -0.83342000   2.63557000  -2.72231000 
H   -0.77758000   1.10882000  -1.82420000 
H    0.68730000   1.73239000  -2.64548000 
*
