! EnGrad PBEh-3c
%output 
xyzfile=True 
end 
%scf 
maxiter 250 
end
%output
Print[P_Hirshfeld] = 1
end
% maxcore
4000
*xyz -1 1
Pd  -2.30905426  -1.65280271   0.81730205 
Cl  -3.80016580  -3.17992988  -0.02479412 
Cl  -1.08536422  -4.14796850   1.71330363 
Cl  -3.71337354   0.04915207   0.22841359 
N   -0.90683119  -0.21209483   1.43871016 
C   -1.20902972   0.31623492   2.60953766 
C   -0.72368147   1.55203069   3.04177741 
C    0.08190388   2.25780546   2.18658661 
C   -0.06481578   0.42442106   0.59857205 
C    0.42618925   1.70106641   0.94760142 
H    0.45580475   3.23374669   2.47330501 
H   -1.89690454  -0.23906084   3.23313446 
H   -1.00350573   1.93445756   4.01250988 
C    0.36897554  -0.22828954  -0.61120100 
C    1.25529632   2.41190387   0.02708668 
C    1.58450651   1.85718441  -1.15900774 
C    1.17498981   0.52772484  -1.49306826 
H    1.60274828   3.40409162   0.28668244 
H    2.19900992   2.41555007  -1.85556258 
C    0.06461103  -1.56697110  -0.92193155 
C    1.62325461  -0.04898293  -2.69086968 
C    0.52149526  -2.09113852  -2.11480806 
C    1.30997549  -1.34870123  -2.99595660 
H    2.23079923   0.52571557  -3.37994483 
H    1.66933800  -1.78319510  -3.92151734 
H   -0.16916659  -2.99086470  -0.06121330 
H    0.31298782  -3.12108535  -2.38465511 
*
