! EnGrad PBEh-3c
%output 
xyzfile=True 
end 
%scf 
maxiter 250 
end
%output
Print[P_Hirshfeld] = 1
end
% maxcore
4000
*xyz -1 1
Pd  -2.28320817  -1.74409220   0.79585083 
Cl  -3.74894294  -3.17631156  -0.03805209 
Cl  -1.03296318  -4.14276752   1.63996087 
Cl  -3.74959141   0.01991891   0.30482576 
N   -0.93644520  -0.20020937   1.44782617 
C   -1.21722332   0.34526058   2.60925161 
C   -0.72739348   1.56409441   3.02936294 
C    0.07686137   2.26414234   2.18908576 
C   -0.06144272   0.42318179   0.62102459 
C    0.43693552   1.72368099   0.94229050 
H    0.46240819   3.24667637   2.46548989 
H   -1.90487111  -0.21868330   3.22811443 
H   -1.01567348   1.95845882   4.00447259 
C    0.35178599  -0.21884451  -0.58914708 
C    1.26719835   2.40921537   0.02494412 
C    1.59520729   1.85897421  -1.14025460 
C    1.18569755   0.53424661  -1.51003736 
H    1.62196359   3.40502146   0.29268394 
H    2.22202769   2.40358522  -1.84981408 
C    0.06391875  -1.76196941  -0.85838514 
C    1.63311010  -0.05358617  -2.69136334 
C    0.50164074  -2.07941463  -2.13643291 
C    1.28678202  -1.32959247  -3.00221642 
H    2.24638688   0.52386758  -3.36577169 
H    1.65952365  -1.78434023  -3.91542849 
H   -0.20050678  -2.87030046  -0.11240772 
H    0.26699342  -3.09769876  -2.38513409 
*
