! EnGrad PBEh-3c
%output 
xyzfile=True 
end 
%scf 
maxiter 250 
end
%output
Print[P_Hirshfeld] = 1
end
% maxcore
4000
*xyz -1 1
Pd  -2.26273867  -1.76105440   0.79200914 
Cl  -3.72689339  -3.19264822  -0.05620207 
Cl  -0.99837276  -4.14281271   1.59076139 
Cl  -3.76746652  -0.01439535   0.36235705 
N   -0.93823793  -0.19607753   1.44698341 
C   -1.23393174   0.34889774   2.60701620 
C   -0.73162898   1.58353991   3.03434114 
C    0.08306673   2.28072126   2.18275167 
C   -0.06282025   0.42631083   0.61906087 
C    0.43257597   1.71984217   0.94774848 
H    0.46444086   3.25309140   2.46163274 
H   -1.91318444  -0.20288198   3.22747094 
H   -1.02242061   1.97341351   3.99527704 
C    0.35284549  -0.27585443  -0.58639544 
C    1.27504148   2.41830279   0.03551214 
C    1.60600411   1.84887147  -1.14934397 
C    1.16707129   0.51840589  -1.48122882 
H    1.63524705   3.40387733   0.29570876 
H    2.23663457   2.39520801  -1.84278335 
C    0.08094614  -1.74425377  -0.84507867 
C    1.63700277  -0.05178929  -2.69049713 
C    0.47692175  -2.09706672  -2.11591934 
C    1.27148523  -1.32399762  -3.00617913 
H    2.26124819   0.52255603  -3.36030054 
H    1.64862027  -1.78384994  -3.91169368 
H   -0.21050182  -2.80684081  -0.14686393 
H    0.23937334  -3.09683423  -2.40369446 
*
