! EnGrad PBEh-3c
%output 
xyzfile=True 
end 
%scf 
maxiter 250 
end
%output
Print[P_Hirshfeld] = 1
end
% maxcore
4000
*xyz -1 1
Pd  -2.23128334  -1.78281604   0.78421865 
Cl  -3.68998687  -3.21972661  -0.08644734 
Cl  -0.93922715  -4.14548297   1.50851244 
Cl  -3.79722087  -0.07152980   0.45774571 
N   -0.94137906  -0.18784173   1.44753460 
C   -1.24970565   0.37077407   2.60208405 
C   -0.73821453   1.60450902   3.02656872 
C    0.08233677   2.29574189   2.18087357 
C   -0.06658275   0.41779469   0.61466042 
C    0.43304826   1.71957563   0.94698321 
H    0.47021535   3.26821507   2.45543488 
H   -1.93145079  -0.18057664   3.22905486 
H   -1.03497397   2.00075953   3.98659893 
C    0.35703910  -0.33011483  -0.56923338 
C    1.28887408   2.41618787   0.03499390 
C    1.61111035   1.83675506  -1.13577318 
C    1.15351959   0.49003799  -1.45967040 
H    1.65805490   3.40578093   0.30231301 
H    2.26152169   2.38026583  -1.83479900 
C    0.09595102  -1.72542321  -0.82563385 
C    1.63402270  -0.05148989  -2.67681270 
C    0.45590198  -2.10345527  -2.10757746 
C    1.24001257  -1.32462328  -2.99945874 
H    2.28398865   0.51984546  -3.34954047 
H    1.63009163  -1.78398957  -3.90742845 
H   -0.22727654  -2.71820691  -0.18897309 
H    0.19189097  -3.09847624  -2.43086056 
*
