! EnGrad PBEh-3c
%output 
xyzfile=True 
end 
%scf 
maxiter 250 
end
%output
Print[P_Hirshfeld] = 1
end
% maxcore
4000
*xyz -1 1
Pd  -2.21434594  -1.78145902   0.78011717 
Cl  -3.66954541  -3.24018392  -0.10760433 
Cl  -0.89904845  -4.14449070   1.45235997 
Cl  -3.81309218  -0.11103228   0.51984434 
N   -0.94074005  -0.18398882   1.44875121 
C   -1.25714615   0.38526651   2.59816759 
C   -0.74700318   1.61331267   3.02260230 
C    0.08243396   2.30087727   2.17402218 
C   -0.06816105   0.40956704   0.61412537 
C    0.43303423   1.71503351   0.94415064 
H    0.47389604   3.27796755   2.45140102 
H   -1.94458031  -0.16641535   3.23014937 
H   -1.04233586   2.01740863   3.98148108 
C    0.36812649  -0.33406113  -0.55448391 
C    1.29507051   2.41472044   0.03940469 
C    1.61277507   1.82282209  -1.13075013 
C    1.15498372   0.47399605  -1.45284777 
H    1.67100582   3.40398290   0.30539328 
H    2.27214871   2.36561378  -1.82719310 
C    0.09811131  -1.69927718  -0.83232546 
C    1.62595624  -0.05434734  -2.66377490 
C    0.45032384  -2.10350063  -2.10932855 
C    1.22347374  -1.33157075  -2.99244394 
H    2.29339459   0.51463266  -3.33788606 
H    1.61449183  -1.78337258  -3.90374364 
H   -0.23678739  -2.68074875  -0.19554349 
H    0.16361918  -3.09907795  -2.44606560 
*
