! EnGrad PBEh-3c
%output 
xyzfile=True 
end 
%scf 
maxiter 250 
end
%output
Print[P_Hirshfeld] = 1
end
% maxcore
4000
*xyz -1 1
Pd  -2.18733821  -1.79410591   0.76706546 
Cl  -3.62884560  -3.26734428  -0.14103171 
Cl  -0.82535255  -4.13591767   1.34857602 
Cl  -3.84241465  -0.17412486   0.62744237 
N   -0.94733263  -0.17853330   1.45299549 
C   -1.27370409   0.40492224   2.59536766 
C   -0.75918398   1.63205545   3.01427122 
C    0.08104512   2.30748324   2.16368621 
C   -0.06578540   0.40497777   0.62459946 
C    0.43476376   1.71296198   0.94153966 
H    0.47908963   3.29056284   2.44197892 
H   -1.96334522  -0.13929144   3.22729317 
H   -1.05506795   2.04470964   3.97129590 
C    0.38377429  -0.32192345  -0.53443988 
C    1.30518609   2.40789105   0.04353240 
C    1.62005040   1.80464917  -1.12101916 
C    1.16506986   0.46469962  -1.44255683 
H    1.69185196   3.39855223   0.31022176 
H    2.28790723   2.33789573  -1.81312646 
C    0.09393432  -1.71118217  -0.83556895 
C    1.61873764  -0.06604553  -2.65408417 
C    0.43363906  -2.10639276  -2.11508964 
C    1.20456611  -1.33328611  -2.98857381 
H    2.30329567   0.50236590  -3.31198637 
H    1.58733759  -1.78242674  -3.89696493 
H   -0.25821677  -2.61329815  -0.19950203 
H    0.11623872  -3.08907960  -2.46306218 
*
