! EnGrad PBEh-3c
%output 
xyzfile=True 
end 
%scf 
maxiter 250 
end
%output
Print[P_Hirshfeld] = 1
end
% maxcore
4000
*xyz -1 1
Pd  -2.16415531  -1.80471810   0.74829900 
Cl  -3.58219214  -3.29327357  -0.17869838 
Cl  -0.73329508  -4.10834456   1.21577019 
Cl  -3.87224943  -0.24423079   0.75178213 
N   -0.95801975  -0.17612705   1.46314619 
C   -1.28974518   0.42295764   2.59051862 
C   -0.77307242   1.65120238   3.00172929 
C    0.07731332   2.31467243   2.15670135 
C   -0.05700640   0.40851949   0.64333528 
C    0.43949458   1.71417303   0.94161811 
H    0.48155709   3.29527353   2.42646677 
H   -1.98704312  -0.10915365   3.22218252 
H   -1.06862547   2.07287982   3.95854880 
C    0.39871221  -0.31881976  -0.52737779 
C    1.31408989   2.39448892   0.04710934 
C    1.63294656   1.78981454  -1.10904812 
C    1.18519288   0.46602494  -1.42943783 
H    1.71013822   3.38407594   0.31350431 
H    2.30003552   2.30162907  -1.79731094 
C    0.08956409  -1.69230021  -0.84659462 
C    1.61399746  -0.08410189  -2.64922650 
C    0.41062079  -2.11219680  -2.12070376 
C    1.19241871  -1.33354714  -2.98657096 
H    2.30477905   0.48292383  -3.27665179 
H    1.55418449  -1.78274883  -3.89434553 
H   -0.28737121  -2.56490592  -0.16991923 
H    0.06784981  -3.07490066  -2.47475424 
*
