! EnGrad PBEh-3c
%output 
xyzfile=True 
end 
%scf 
maxiter 250 
end
%output
Print[P_Hirshfeld] = 1
end
% maxcore
4000
*xyz 0 1
C   -1.51627613   0.19138882  -0.46745313 
C   -2.02764892  -0.85443200  -1.22812475 
C   -1.56942856  -2.14855670  -1.01154333 
C   -0.76375458  -2.41797362   0.08829533 
C   -0.48925887  -0.05261521   0.45539382 
C   -0.26403995  -1.37023225   0.84653151 
H   -1.87804732   1.19680739  -0.65368047 
H   -2.66058178  -0.63526155  -2.08274056 
H   -1.81212109  -2.93769240  -1.71417065 
H    0.38758379  -1.57428859   1.68581705 
H   -0.38659128  -3.41911635   0.26131315 
Pd   1.19958178   0.93511743  -0.01963066 
O    3.00859440   1.22064944  -1.22371540 
O    2.48201219  -0.64284626  -0.22430468 
O    0.28597338   2.71527119   0.25464736 
C   -0.11429187   2.95570918   1.38725772 
O   -0.19629612   2.11655621   2.38201865 
H   -0.44753301   1.24263259   2.05708516 
C    3.24880100   0.02242021  -0.97838664 
H    4.10900188  -0.49844820  -1.42700326 
H   -0.58914239   3.93015729   1.57062852 
*
