! EnGrad PBEh-3c
%output 
xyzfile=True 
end 
%scf 
maxiter 250 
end
%output
Print[P_Hirshfeld] = 1
end
% maxcore
4000
*xyz 0 1
C   -1.53159982   0.19193650  -0.46201025 
C   -2.03265318  -0.85886732  -1.22498252 
C   -1.57544895  -2.15153927  -1.01694664 
C   -0.76890039  -2.41296888   0.08038823 
C   -0.50347984  -0.05762359   0.45567598 
C   -0.27903987  -1.37235124   0.85391341 
H   -1.89548799   1.20150342  -0.64264704 
H   -2.64293168  -0.63872920  -2.08844353 
H   -1.82354678  -2.94458832  -1.70799720 
H    0.37466986  -1.56596708   1.69626566 
H   -0.37718699  -3.40327059   0.25044123 
Pd   1.20509406   0.93119280  -0.01643977 
O    3.02463720   1.23083404  -1.25082924 
O    2.50527143  -0.62087221  -0.20950302 
O    0.32883204   2.70555444   0.26024653 
C   -0.13492738   2.94152389   1.36751722 
O   -0.08494307   2.12843715   2.39602054 
H   -0.53983262   1.23758266   2.06516733 
C    3.25519660   0.03525399  -0.98782180 
H    4.10856940  -0.50184508  -1.41730147 
H   -0.60839723   3.90344937   1.56567014 
*
