! EnGrad PBEh-3c
%output 
xyzfile=True 
end 
%scf 
maxiter 250 
end
%output
Print[P_Hirshfeld] = 1
end
% maxcore
4000
*xyz 0 1
C   -1.54588591   0.18283397  -0.48136480 
C   -2.05344802  -0.86993729  -1.24506030 
C   -1.63769867  -2.17354893  -1.00138550 
C   -0.78305832  -2.42029870   0.06672714 
C   -0.54369404  -0.03962117   0.47489783 
C   -0.28655815  -1.36567990   0.82451069 
H   -1.87774779   1.18347355  -0.72853137 
H   -2.70528895  -0.67214332  -2.09320223 
H   -2.00898514  -2.99679559  -1.61400921 
H    0.39440955  -1.58892721   1.63095428 
H   -0.42816446  -3.43224170   0.23892672 
Pd   1.24603039   0.97900493   0.00427991 
O    3.16952461   1.27244932  -1.28556711 
O    2.57024816  -0.54649812  -0.22288567 
O    0.37710171   2.77799578   0.22201873 
C   -0.09104729   2.89452074   1.33376258 
O    0.01666056   2.00346398   2.31783659 
H   -0.74105297   1.39243046   2.40082555 
C    3.36128773   0.08256775  -0.99167877 
H    4.22327712  -0.47281856  -1.41146046 
H   -0.65580468   3.79655810   1.54598836 
*
