! EnGrad PBEh-3c
%output 
xyzfile=True 
end 
%scf 
maxiter 250 
end
%output
Print[P_Hirshfeld] = 1
end
% maxcore
4000
*xyz 0 1
C   -1.54018373   0.18892525  -0.46224290 
C   -2.03556120  -0.86224706  -1.22583145 
C   -1.58462619  -2.15594348  -1.01818307 
C   -0.77226855  -2.41127852   0.07487992 
C   -0.51163318  -0.05677058   0.45775017 
C   -0.28688756  -1.37317920   0.85124947 
H   -1.89870625   1.20201030  -0.64813899 
H   -2.64278353  -0.64528292  -2.09087199 
H   -1.85074808  -2.95586957  -1.69577690 
H    0.37258871  -1.56443214   1.69206386 
H   -0.38062721  -3.39972008   0.24438290 
Pd   1.20705437   0.93318539  -0.00934882 
O    3.05260212   1.23969028  -1.26776842 
O    2.52168394  -0.60217312  -0.20370850 
O    0.35274011   2.71321312   0.27423675 
C   -0.15427444   2.92488308   1.35533414 
O   -0.03851872   2.11127001   2.37598042 
H   -0.58675655   1.27417733   2.11396371 
C    3.26892117   0.04581631  -0.99422495 
H    4.12128979  -0.49921812  -1.41281312 
H   -0.61091553   3.87314173   1.56037829 
*
