! EnGrad PBEh-3c
%output 
xyzfile=True 
end 
%scf 
maxiter 250 
end
%output
Print[P_Hirshfeld] = 1
end
% maxcore
4000
*xyz 0 1
C   -1.52105818   0.17648180  -0.58700183 
C   -2.08750854  -0.88134108  -1.26417621 
C   -1.74519887  -2.18454292  -0.94491663 
C   -0.80349646  -2.44344485   0.04482701 
C   -0.59670999  -0.09740378   0.43453543 
C   -0.24984528  -1.41214245   0.77238114 
H   -1.82900325   1.16962099  -0.90392341 
H   -2.82004084  -0.69714901  -2.03453671 
H   -2.23022684  -3.00181913  -1.45177379 
H    0.49004214  -1.65487769   1.53170847 
H   -0.53533864  -3.45988251   0.27110898 
Pd   1.41721030   1.08669833  -0.10238387 
O    3.28699564   1.32178800  -1.20602838 
O    2.64921985  -0.53876194  -0.28880165 
O    0.37078994   2.82613734   0.12598313 
C   -0.02843886   2.92355592   1.34277296 
O    0.29976819   2.12189432   2.23378456 
H   -1.17080530   1.32089503   2.82562949 
C    3.48084304   0.10755715  -0.99519129 
H    4.36844649  -0.40992064  -1.37898640 
H   -0.74601235   3.72558886   1.57412710 
*
