! EnGrad PBEh-3c
%output 
xyzfile=True 
end 
%scf 
maxiter 250 
end
%output
Print[P_Hirshfeld] = 1
end
% maxcore
4000
*xyz 0 1
C   -1.52959239   0.17536131  -0.52724866 
C   -2.08173575  -0.88709438  -1.25720843 
C   -1.69957599  -2.18814935  -0.97331597 
C   -0.80976664  -2.43897075   0.05860892 
C   -0.52594808  -0.03710553   0.44175413 
C   -0.26714500  -1.37385052   0.78674287 
H   -1.83902185   1.17546449  -0.82318260 
H   -2.77938493  -0.68762355  -2.07151614 
H   -2.14218923  -3.00580064  -1.52200416 
H    0.44563402  -1.61966523   1.56906689 
H   -0.48730322  -3.46426033   0.25544492 
Pd   1.29660399   1.01714650  -0.02445046 
O    3.24955880   1.30097343  -1.25075901 
O    2.60570008  -0.53063909  -0.26645583 
O    0.37419203   2.81132971   0.17744849 
C   -0.05374768   2.91894974   1.30432527 
O    0.15616875   2.03713650   2.30595853 
H   -0.96207376   1.36998743   2.63718417 
C    3.43722825   0.10579845  -0.97985967 
H    4.31441126  -0.43755427  -1.40142796 
H   -0.70319844   3.75017663   1.55396398 
*
