! EnGrad PBEh-3c
%output 
xyzfile=True 
end 
%scf 
maxiter 250 
end
%output
Print[P_Hirshfeld] = 1
end
% maxcore
4000
*xyz 0 1
C   -1.53799141   0.18061555  -0.48143500 
C   -2.05730649  -0.87078244  -1.24463296 
C   -1.65213359  -2.18126754  -0.99915316 
C   -0.78847153  -2.41908338   0.07015427 
C   -0.54011221  -0.03816292   0.46577200 
C   -0.28330508  -1.35460572   0.81398151 
H   -1.86830256   1.17881977  -0.74912049 
H   -2.72676914  -0.67774012  -2.09719873 
H   -2.04604321  -3.00637090  -1.59553519 
H    0.40124806  -1.59496412   1.61312587 
H   -0.44009352  -3.44804556   0.23977089 
Pd   1.24578170   0.98661791   0.01074983 
O    3.19471125   1.28026539  -1.28631251 
O    2.57642492  -0.53705165  -0.23112515 
O    0.38173591   2.79082573   0.20193317 
C   -0.07643123   2.90351296   1.32059699 
O    0.03582769   1.98919294   2.32920922 
H   -0.78533450   1.39920454   2.46300086 
C    3.38502033   0.09097723  -0.98649514 
H    4.24864459  -0.46618876  -1.41343218 
H   -0.66768635   3.78179959   1.54405616 
*
