! EnGrad PBEh-3c
%output 
xyzfile=True 
end 
%scf 
maxiter 250 
end
%output
Print[P_Hirshfeld] = 1
end
% maxcore
4000
*xyz 0 1
C   -1.54119380   0.18246714  -0.49064681 
C   -2.05602251  -0.86939356  -1.24595225 
C   -1.65035316  -2.17633120  -0.99642564 
C   -0.78447198  -2.42036166   0.06641160 
C   -0.55106347  -0.04871718   0.46706241 
C   -0.28199031  -1.36682223   0.81777604 
H   -1.87209981   1.17988480  -0.74942164 
H   -2.72051909  -0.67648414  -2.08987036 
H   -2.03851910  -3.00163061  -1.59660243 
H    0.40347519  -1.59654574   1.61693632 
H   -0.44052333  -3.43848326   0.24119932 
Pd   1.26261525   0.99240809  -0.00362920 
O    3.18685393   1.27848001  -1.28047869 
O    2.58025242  -0.54339569  -0.22943829 
O    0.37910369   2.78709725   0.20722092 
C   -0.08145406   2.89601061   1.33359950 
O    0.04330169   2.00998932   2.31257673 
H   -0.79016432   1.39273970   2.45985036 
C    3.37807428   0.08669199  -0.99162345 
H    4.24245751  -0.46637979  -1.40961073 
H   -0.66780546   3.78703275   1.54863361 
*
