! EnGrad PBEh-3c
%output 
xyzfile=True 
end 
%scf 
maxiter 250 
end
%output
Print[P_Hirshfeld] = 1
end
% maxcore
4000
*xyz 1 1
Sc   0.55219049  -0.50861751  -2.03044292 
C    0.11918730  -0.36467128   0.20534808 
N   -0.47300474  -1.31456910   0.94866480 
C   -0.48487474  -0.95978346   2.26602146 
C    0.10973992   0.25052458   2.34678331 
N    0.45878472   0.60334177   1.07483860 
C    1.16655570   1.83007679   0.76608325 
H    0.70162602   2.66656057   1.28300090 
H    1.11791320   2.04324672  -0.29856033 
H    2.21549380   1.76236943   1.04833204 
C   -1.00162354  -2.57785310   0.46695538 
H   -1.09630835  -2.56016911  -0.61619636 
H   -1.99395302  -2.74300696   0.87952395 
H   -0.34788911  -3.39838028   0.75548512 
H   -0.91020920  -1.57641219   3.03920231 
H    0.30168614   0.86533941   3.20944302 
C    0.19140913   1.56220455  -2.96015788 
H   -0.31302560   1.46179543  -3.92960604 
H    1.08188080   2.17697786  -3.13185112 
H   -0.49246404   2.13836993  -2.32601542 
H   -0.90308522  -1.35734334  -2.99685251 
*
