! EnGrad PBEh-3c
%output 
xyzfile=True 
end 
%scf 
maxiter 250 
end
%output
Print[P_Hirshfeld] = 1
end
% maxcore
4000
*xyz 1 1
Sc   0.43456128  -0.40295790  -2.16722688 
C    0.13922779  -0.37638534   0.19320214 
N   -0.46682189  -1.31584529   0.95128301 
C   -0.49945866  -0.95246338   2.26970122 
C    0.09576280   0.25475023   2.35090815 
N    0.47332202   0.59298213   1.07676571 
C    1.17987683   1.83176338   0.75466995 
H    0.72841079   2.66049929   1.29292323 
H    1.10846503   2.04214497  -0.30729151 
H    2.22320802   1.74309579   1.04873521 
C   -0.99694895  -2.58012413   0.46481911 
H   -1.07809950  -2.57023365  -0.62098776 
H   -1.99526300  -2.73906171   0.86568767 
H   -0.35443018  -3.40181012   0.77672424 
H   -0.93453151  -1.56786504   3.03578724 
H    0.28908363   0.87961801   3.20468443 
C    0.21155803   1.49032311  -2.91716940 
H   -0.31262765   1.43982212  -3.90487252 
H    1.06004205   2.18080055  -3.11968218 
H   -0.49512638   2.11010126  -2.31152409 
H   -0.81276008  -1.32001484  -2.93514325 
*
