! EnGrad PBEh-3c
%output 
xyzfile=True 
end 
%scf 
maxiter 250 
end
%output
Print[P_Hirshfeld] = 1
end
% maxcore
4000
*xyz 1 1
Sc   0.41672910  -0.38800764  -2.17771925 
C    0.14199005  -0.37719316   0.19604046 
N   -0.46464580  -1.31666985   0.94557948 
C   -0.50138290  -0.95083275   2.26756215 
C    0.09489969   0.25615685   2.34785025 
N    0.47737818   0.59283566   1.07094966 
C    1.18026554   1.82480956   0.75879013 
H    0.73315471   2.65974078   1.29467616 
H    1.10673311   2.04184014  -0.31137176 
H    2.22522980   1.74076276   1.04757593 
C   -0.99606928  -2.57956311   0.46617596 
H   -1.07410905  -2.57149982  -0.62178544 
H   -1.99536109  -2.73836449   0.86287752 
H   -0.35595182  -3.40255248   0.77988528 
H   -0.94022456  -1.56748168   3.03650503 
H    0.28634083   0.88373750   3.20474073 
C    0.20804021   1.50858610  -2.92303948 
H   -0.30791830   1.43177740  -3.89167898 
H    1.05224623   2.17314771  -3.11391801 
H   -0.48963665   2.09682423  -2.31119939 
H   -0.80094995  -1.31889646  -2.92603056 
*
