! EnGrad PBEh-3c
%output 
xyzfile=True 
end 
%scf 
maxiter 250 
end
%output
Print[P_Hirshfeld] = 1
end
% maxcore
4000
*xyz 1 1
Sc   0.42339235  -0.39205780  -2.16537469 
C    0.14199432  -0.37637271   0.19393701 
N   -0.46465503  -1.31624842   0.94633452 
C   -0.50152738  -0.95199824   2.26620632 
C    0.09643644   0.25761794   2.34647613 
N    0.47593006   0.59185038   1.07238294 
C    1.17996741   1.82449519   0.75700015 
H    0.73296879   2.65921276   1.29463280 
H    1.10734113   2.04123676  -0.30910915 
H    2.22579826   1.74117899   1.04688577 
C   -0.99594055  -2.57969746   0.46503795 
H   -1.07367173  -2.57147177  -0.62089373 
H   -1.99554120  -2.73816200   0.86298680 
H   -0.35606041  -3.40252042   0.77951282 
H   -0.94009382  -1.56699482   3.03586030 
H    0.28584530   0.88352607   3.20389517 
C    0.20520773   1.51929759  -2.92779453 
H   -0.30819957   1.43064765  -3.89232198 
H    1.05433744   2.17303348  -3.11350685 
H   -0.48997908   2.09642435  -2.31003709 
H   -0.80689562  -1.32372457  -2.92961029 
*
