! EnGrad PBEh-3c
%output 
xyzfile=True 
end 
%scf 
maxiter 250 
end
%output
Print[P_Hirshfeld] = 1
end
% maxcore
4000
*xyz 1 1
Sc   0.41990743  -0.38191450  -2.15183047 
C    0.14478768  -0.37662401   0.18920472 
N   -0.46314122  -1.31603101   0.94524362 
C   -0.50314719  -0.95124544   2.26253564 
C    0.09682740   0.25931849   2.34303134 
N    0.47647105   0.58961661   1.07234593 
C    1.18154118   1.82163873   0.75418658 
H    0.73772829   2.65588456   1.29593124 
H    1.10710444   2.03922242  -0.30639368 
H    2.22854764   1.73902332   1.04410097 
C   -0.99492002  -2.58011007   0.46335933 
H   -1.06863223  -2.57307957  -0.62032675 
H   -1.99591375  -2.73667438   0.86025425 
H   -0.35774835  -3.40311383   0.78208992 
H   -0.94482923  -1.56423194   3.03331705 
H    0.28183276   0.88656744   3.20049140 
C    0.20003837   1.53811011  -2.93413757 
H   -0.30919743   1.42192988  -3.89015565 
H    1.05841666   2.17391110  -3.10962437 
H   -0.49225421   2.09016254  -2.30245917 
H   -0.80771110  -1.33287164  -2.92807979 
*
