! EnGrad PBEh-3c
%output 
xyzfile=True 
end 
%scf 
maxiter 250 
end
%output
Print[P_Hirshfeld] = 1
end
% maxcore
4000
*xyz 1 1
Sc   0.42403751  -0.37712825  -2.12797110 
C    0.14566486  -0.37653747   0.18808064 
N   -0.46199585  -1.31611365   0.94226802 
C   -0.50371645  -0.95045449   2.25898932 
C    0.09719086   0.25955860   2.34005298 
N    0.47709060   0.58924341   1.06982118 
C    1.18328189   1.81853884   0.75472269 
H    0.74132525   2.65212824   1.29641374 
H    1.10745143   2.03735639  -0.30469021 
H    2.23079251   1.73768367   1.04032163 
C   -0.99431284  -2.58036556   0.46297163 
H   -1.06409418  -2.57434280  -0.62056084 
H   -1.99604196  -2.73506268   0.85780490 
H   -0.35910358  -3.40358944   0.78349847 
H   -0.94824448  -1.56113447   3.02972300 
H    0.27804808   0.88897740   3.19637871 
C    0.19545755   1.55513721  -2.93993347 
H   -0.31250408   1.41476368  -3.89353040 
H    1.06675764   2.17817219  -3.10718007 
H   -0.49771560   2.08895648  -2.29318169 
H   -0.81459343  -1.34602719  -2.93033288 
*
