! EnGrad PBEh-3c
%output 
xyzfile=True 
end 
%scf 
maxiter 250 
end
%output
Print[P_Hirshfeld] = 1
end
% maxcore
4000
*xyz 1 1
Sc   0.42289196  -0.36159459  -2.08953027 
C    0.14732710  -0.37674656   0.18926120 
N   -0.46073889  -1.31700576   0.93847162 
C   -0.50482420  -0.94885842   2.25109925 
C    0.09671766   0.25953825   2.33299300 
N    0.47886264   0.58824700   1.06764431 
C    1.18927088   1.81340861   0.75430104 
H    0.74894070   2.64425415   1.29859651 
H    1.10840203   2.03409241  -0.30325348 
H    2.23745681   1.73322382   1.03162796 
C   -0.99281248  -2.58108791   0.46061909 
H   -1.05364318  -2.57810616  -0.62287933 
H   -1.99684379  -2.73074756   0.85173062 
H   -0.36164036  -3.40512895   0.78726441 
H   -0.95621596  -1.55355100   3.01989354 
H    0.26902717   0.89494439   3.18608985 
C    0.19192057   1.57081856  -2.94083689 
H   -0.32105094   1.40217550  -3.90342390 
H    1.08320656   2.19206374  -3.10286798 
H   -0.51257380   2.09274196  -2.27317643 
H   -0.82123402  -1.37251776  -2.92830017 
*
