! EnGrad PBEh-3c
%output 
xyzfile=True 
end 
%scf 
maxiter 250 
end
%output
Print[P_Hirshfeld] = 1
end
% maxcore
4000
*xyz 1 1
Sc   0.42625543  -0.36555669  -2.07198821 
C    0.14539579  -0.37673680   0.19346295 
N   -0.46168724  -1.31808530   0.93635365 
C   -0.50383952  -0.94827741   2.25011150 
C    0.09562817   0.25818201   2.33431804 
N    0.48056148   0.59120854   1.06569214 
C    1.19142202   1.81267268   0.75571479 
H    0.74971631   2.64149374   1.29900648 
H    1.11015101   2.03378801  -0.30463593 
H    2.24149448   1.73161971   1.02706189 
C   -0.99306932  -2.58203188   0.46012032 
H   -1.05050920  -2.57959511  -0.62610449 
H   -1.99700137  -2.72851283   0.84912628 
H   -0.36191031  -3.40542210   0.78684726 
H   -0.95791001  -1.55099612   3.01471659 
H    0.26554674   0.89631376   3.18060712 
C    0.19133908   1.57138892  -2.93741014 
H   -0.32211374   1.40444413  -3.90554996 
H    1.08459714   2.19900212  -3.10257939 
H   -0.51680222   2.10171237  -2.27187709 
H   -0.82591670  -1.38639839  -2.92671342 
*
