! EnGrad PBEh-3c
%output 
xyzfile=True 
end 
%scf 
maxiter 250 
end
%output
Print[P_Hirshfeld] = 1
end
% maxcore
4000
*xyz -1 1
Pd  -2.18905810  -1.66429767   0.78429953 
Cl  -3.57242473  -3.27039233  -0.15213950 
Cl  -0.85393601  -4.51546259   1.53297018 
Cl  -3.95178745  -0.16727440   0.61747680 
N   -0.92951334  -0.12198625   1.43320321 
C   -1.25179859   0.41894820   2.59183481 
C   -0.76360645   1.65769665   3.01690369 
C    0.08531753   2.33521724   2.17865978 
C   -0.07372758   0.49745079   0.59281109 
C    0.44627607   1.75964301   0.95146414 
H    0.47842923   3.30139124   2.47161498 
H   -1.94945616  -0.12985384   3.21267762 
H   -1.06042496   2.05671266   3.97575502 
C    0.34681235  -0.17278850  -0.60853330 
C    1.32510702   2.43077442   0.04429973 
C    1.66341345   1.85356263  -1.12922740 
C    1.20609678   0.54141625  -1.47445991 
H    1.70527070   3.41164052   0.30502043 
H    2.32005472   2.38438728  -1.81222284 
C   -0.03504708  -1.49402169  -0.93122752 
C    1.64430800  -0.05748913  -2.66332660 
C    0.39595424  -2.02817555  -2.13084114 
C    1.26493201  -1.33687981  -2.97729138 
H    2.29699108   0.48246101  -3.34570705 
H    1.62070850  -1.78777886  -3.89839449 
H   -0.27475395  -3.36074764  -0.14277933 
H    0.10585695  -3.02415367  -2.44284633 
*
