! EnGrad PBEh-3c
%output 
xyzfile=True 
end 
%scf 
maxiter 250 
end
%output
Print[P_Hirshfeld] = 1
end
% maxcore
4000
*xyz -1 1
Pd  -2.17524241  -1.69948053   0.67856470 
Cl  -3.54980331  -3.23697488  -0.13776901 
Cl  -0.77847334  -4.41833346   1.39204679 
Cl  -3.93223316  -0.18081341   0.66431592 
N   -0.96678356  -0.13514365   1.43886329 
C   -1.26718108   0.42157102   2.59238633 
C   -0.75920829   1.65328545   3.02056986 
C    0.08686701   2.33484053   2.17246789 
C   -0.06394704   0.47514334   0.62071876 
C    0.44736677   1.76656440   0.95033665 
H    0.47973117   3.29963680   2.46036149 
H   -1.95025323  -0.12217934   3.20776181 
H   -1.06181029   2.05762381   3.96875953 
C    0.34153893  -0.20800006  -0.60217574 
C    1.32578132   2.43728185   0.04658026 
C    1.66684217   1.85457845  -1.12964390 
C    1.20638322   0.54562541  -1.48292355 
H    1.70603065   3.40809608   0.30767108 
H    2.32036460   2.37406573  -1.81145055 
C   -0.05131666  -1.61574956  -0.88249646 
C    1.65827726  -0.05673068  -2.67053739 
C    0.39705988  -2.03951394  -2.13176481 
C    1.24755181  -1.31291856  -2.99498730 
H    2.30522450   0.48972352  -3.33450091 
H    1.61411731  -1.79136215  -3.89384410 
H   -0.34350395  -3.27775548  -0.01159514 
H    0.09356917  -3.02315910  -2.43435062 
*
