! EnGrad PBEh-3c
%output 
xyzfile=True 
end 
%scf 
maxiter 250 
end
%output
Print[P_Hirshfeld] = 1
end
% maxcore
4000
*xyz -1 1
Pd  -2.16992470  -1.68805147   0.68176756 
Cl  -3.55631449  -3.24246308  -0.14149728 
Cl  -0.77442623  -4.40636424   1.38160308 
Cl  -3.93018454  -0.18097618   0.66382187 
N   -0.95757597  -0.13167182   1.43422278 
C   -1.26808047   0.41764654   2.59000177 
C   -0.75794056   1.65423384   3.01939794 
C    0.08683104   2.33614848   2.17449780 
C   -0.06564775   0.47269898   0.61255412 
C    0.44424010   1.75640514   0.95129357 
H    0.47908321   3.29908894   2.46012362 
H   -1.95406738  -0.12390151   3.21085671 
H   -1.06129839   2.05681127   3.96945811 
C    0.34140551  -0.21933611  -0.59979187 
C    1.32492040   2.43533284   0.04521136 
C    1.66403575   1.85187627  -1.12908714 
C    1.19832396   0.53468750  -1.47436591 
H    1.70613014   3.41008270   0.30818469 
H    2.32107928   2.37525023  -1.81298195 
C   -0.03953398  -1.59326108  -0.88423087 
C    1.65339412  -0.05498098  -2.66683082 
C    0.39346716  -2.04237113  -2.12472892 
C    1.24525418  -1.31826377  -2.99086996 
H    2.30892876   0.49250654  -3.33796990 
H    1.61353665  -1.79101075  -3.89563476 
H   -0.34497946  -3.27236730  -0.00320129 
H    0.09587372  -3.02766690  -2.43782064 
*
