! EnGrad PBEh-3c
%output 
xyzfile=True 
end 
%scf 
maxiter 250 
end
%output
Print[P_Hirshfeld] = 1
end
% maxcore
4000
*xyz -1 1
Pd  -2.16106010  -1.68212848   0.66254083 
Cl  -3.56033792  -3.24083402  -0.14219625 
Cl  -0.75326550  -4.36550627   1.33691147 
Cl  -3.92218966  -0.18219506   0.67127890 
N   -0.95807383  -0.13491312   1.43080237 
C   -1.26814831   0.42084097   2.58949076 
C   -0.75579469   1.64876850   3.01399168 
C    0.08303536   2.33029259   2.17648137 
C   -0.06515824   0.46409060   0.61070697 
C    0.44558263   1.75139663   0.94868153 
H    0.47976077   3.30005707   2.45739466 
H   -1.95940306  -0.12602543   3.21332538 
H   -1.06120364   2.05596955   3.97094943 
C    0.34315754  -0.23277214  -0.59452510 
C    1.32167950   2.42909715   0.04280588 
C    1.65839267   1.84814237  -1.12479479 
C    1.19248554   0.52574681  -1.46918879 
H    1.70568124   3.41199262   0.30960694 
H    2.32055643   2.37338529  -1.81507230 
C   -0.03221261  -1.60121694  -0.87408734 
C    1.65144667  -0.05272483  -2.66611657 
C    0.39481156  -2.04562216  -2.12080668 
C    1.23728350  -1.32174031  -2.98827925 
H    2.31186811   0.49587980  -3.33657345 
H    1.61091117  -1.79093498  -3.89619023 
H   -0.36124344  -3.24427576   0.03748532 
H    0.09671633  -3.03446413  -2.43907863 
*
