! EnGrad PBEh-3c
%output 
xyzfile=True 
end 
%scf 
maxiter 250 
end
%output
Print[P_Hirshfeld] = 1
end
% maxcore
4000
*xyz -1 1
Pd  -2.13588943  -1.65315171   0.61259526 
Cl  -3.58860343  -3.23682298  -0.14741397 
Cl  -0.68069049  -4.18029660   1.17623498 
Cl  -3.88579533  -0.17483988   0.68289733 
N   -0.95923184  -0.15140366   1.42617728 
C   -1.27442927   0.41077749   2.58822696 
C   -0.75582160   1.62856617   3.00948796 
C    0.07940271   2.30711529   2.17009365 
C   -0.06118235   0.43669347   0.61139459 
C    0.44722277   1.72955896   0.94403184 
H    0.47734498   3.29179244   2.44420614 
H   -1.97256947  -0.13250165   3.21472103 
H   -1.05629270   2.04313781   3.97125882 
C    0.36403936  -0.26761951  -0.57396760 
C    1.30962560   2.41320170   0.04059250 
C    1.63638767   1.82645213  -1.12047518 
C    1.18529427   0.50017702  -1.45905569 
H    1.69334407   3.40453504   0.31068285 
H    2.30082436   2.35468753  -1.81608560 
C   -0.00186763  -1.63493819  -0.83936221 
C    1.63382875  -0.05764629  -2.66463722 
C    0.40587492  -2.07189409  -2.10410538 
C    1.22022366  -1.33226721  -2.98007844 
H    2.30784705   0.50222940  -3.32084048 
H    1.59458488  -1.78805708  -3.89472288 
H   -0.40364695  -3.10169814   0.17076000 
H    0.11137071  -3.06359471  -2.44042417 
*
