! EnGrad PBEh-3c
%output 
xyzfile=True 
end 
%scf 
maxiter 250 
end
%output
Print[P_Hirshfeld] = 1
end
% maxcore
4000
*xyz -1 1
Pd  -2.12832246  -1.63467243   0.58541908 
Cl  -3.60664827  -3.23100553  -0.15261379 
Cl  -0.62892703  -4.05016130   1.07448450 
Cl  -3.86407229  -0.16569651   0.68987381 
N   -0.96247362  -0.16277909   1.42948415 
C   -1.27932564   0.39731578   2.58489678 
C   -0.75947057   1.61535446   3.01185271 
C    0.08175927   2.29558927   2.16252852 
C   -0.05400026   0.42227515   0.61720910 
C    0.44527630   1.71414567   0.94525548 
H    0.47247889   3.27777862   2.43257503 
H   -1.98099110  -0.13652651   3.21242091 
H   -1.05196118   2.03162939   3.96844135 
C    0.38320772  -0.28595605  -0.56390308 
C    1.30223660   2.40523125   0.04296747 
C    1.62633707   1.81151045  -1.12427288 
C    1.18699732   0.48785392  -1.45409017 
H    1.68112352   3.39166605   0.30903582 
H    2.28056695   2.33568221  -1.81389760 
C    0.01590501  -1.65296210  -0.82145271 
C    1.62131597  -0.06577851  -2.66356973 
C    0.41547267  -2.09361816  -2.08984164 
C    1.21342152  -1.34069839  -2.97562509 
H    2.29694171   0.50145462  -3.30489385 
H    1.57962434  -1.78624827  -3.89367599 
H   -0.42144594  -2.99424176   0.24648678 
H    0.12353015  -3.08289168  -2.43857726 
*
