! EnGrad PBEh-3c
%output 
xyzfile=True 
end 
%scf 
maxiter 250 
end
%output
Print[P_Hirshfeld] = 1
end
% maxcore
4000
*xyz -1 1
Pd  -2.13082305  -1.61642994   0.56228228 
Cl  -3.60935794  -3.22341081  -0.15981285 
Cl  -0.59695429  -4.00968907   1.04221865 
Cl  -3.85968183  -0.15613204   0.70012685 
N   -0.95968784  -0.16666423   1.42630780 
C   -1.28547038   0.38686933   2.58656248 
C   -0.75775330   1.61156291   3.01001432 
C    0.07843778   2.28666300   2.16438416 
C   -0.04766310   0.41441213   0.62289396 
C    0.44452779   1.70684290   0.94838202 
H    0.46844872   3.26635187   2.42441427 
H   -1.98716128  -0.13859195   3.20725419 
H   -1.05002519   2.02310203   3.96588199 
C    0.39352604  -0.28886785  -0.56085942 
C    1.29969363   2.39630670   0.03997625 
C    1.62257733   1.80692560  -1.12031396 
C    1.19288929   0.48255931  -1.45174740 
H    1.67241431   3.38129555   0.30706383 
H    2.26928781   2.32429021  -1.81601691 
C    0.01508417  -1.64067343  -0.82094770 
C    1.61368244  -0.07598629  -2.65937527 
C    0.42010645  -2.10549267  -2.07854181 
C    1.21264379  -1.34740994  -2.96899672 
H    2.28628849   0.49783954  -3.29610207 
H    1.56743598  -1.78773319  -3.89439448 
H   -0.41565496  -2.93008137   0.26945960 
H    0.13000437  -3.09176547  -2.43165278 
*
