! EnGrad PBEh-3c
%output 
xyzfile=True 
end 
%scf 
maxiter 250 
end
%output
Print[P_Hirshfeld] = 1
end
% maxcore
4000
*xyz 1 1
Sc   1.48953543  -1.35149902  -1.67954297 
C    0.48090835  -0.71449161   0.24701664 
N   -0.46358583  -1.40454095   0.91161032 
C   -0.85988295  -0.72089993   2.02489308 
C   -0.22446963   0.47146270   2.00159075 
N    0.60405190   0.44855321   0.91722140 
C    1.48656852   1.55139203   0.58458968 
H    1.86435514   2.06602956   1.46571839 
H    0.95969061   2.27147798  -0.03639698 
H    2.37659663   1.17253956   0.08504707 
C   -0.97876465  -2.72052282   0.57542325 
H   -0.43724399  -3.13617876  -0.27030537 
H   -2.03381097  -2.65332395   0.31909153 
H   -0.85405167  -3.39116206   1.42265177 
H   -1.55784622  -1.11809039   2.74167855 
H   -0.26886200   1.28795572   2.70158700 
C   -0.36889657   1.58938971  -2.77254472 
H   -0.85842076   1.07620575  -3.60185984 
H   -0.62453240   2.64540548  -2.86050288 
H   -0.79246975   1.22425871  -1.84165482 
H    1.06115332   1.40605409  -2.93531935 
*
