! EnGrad PBEh-3c
%output 
xyzfile=True 
end 
%scf 
maxiter 250 
end
%output
Print[P_Hirshfeld] = 1
end
% maxcore
4000
*xyz 1 1
Sc   1.57989273  -1.36988564  -1.59353633 
C    0.46604514  -0.70928245   0.24215074 
N   -0.45451264  -1.40508527   0.93576677 
C   -0.88010236  -0.70655714   2.02781705 
C   -0.20000671   0.46193990   2.02918833 
N    0.61469710   0.44003680   0.93325590 
C    1.48902061   1.53956215   0.56508231 
H    1.78883665   2.06780168   1.46796282 
H    0.98913902   2.23787832  -0.10431964 
H    2.38708889   1.16594232   0.08425092 
C   -0.98025708  -2.71246451   0.58753575 
H   -0.43821556  -3.11546315  -0.26445501 
H   -2.03760067  -2.64570475   0.32947100 
H   -0.85086671  -3.39057348   1.42733603 
H   -1.61432169  -1.09483127   2.71593263 
H   -0.23513085   1.28983854   2.72110978 
C   -0.31444008   1.57960310  -2.81971283 
H   -0.93431093   1.19052752  -3.63286039 
H   -0.33307805   2.66290749  -2.86029138 
H   -0.72799955   1.24599116  -1.86259021 
H    0.68695813   1.27378013  -2.92933978 
*
