! EnGrad PBEh-3c
%output 
xyzfile=True 
end 
%scf 
maxiter 250 
end
%output
Print[P_Hirshfeld] = 1
end
% maxcore
4000
*xyz 1 1
Sc   1.50432410  -1.35232235  -1.65735289 
C    0.46929258  -0.70271279   0.21322343 
N   -0.44297626  -1.40713961   0.93010284 
C   -0.88624194  -0.71032832   2.02421752 
C   -0.21319687   0.45510682   2.02155860 
N    0.61174995   0.44778086   0.93924939 
C    1.50309187   1.55067884   0.57025874 
H    1.83550031   2.06595126   1.47627893 
H    0.97412186   2.26230267  -0.05663544 
H    2.37498932   1.17411699   0.07966258 
C   -0.97868289  -2.72012475   0.58265067 
H   -0.43921821  -3.13088518  -0.27071795 
H   -2.03494089  -2.65272834   0.32195334 
H   -0.85541241  -3.39180303   1.42410613 
H   -1.56998477  -1.11306247   2.73577035 
H   -0.26633523   1.28949284   2.70197760 
C   -0.18451524   1.57975158  -2.83331527 
H   -0.85605159   1.10148918  -3.60206466 
H   -0.55764790   2.65977295  -2.85082603 
H   -0.76898247   1.22518926  -1.83159544 
H    0.78184314   1.37053074  -2.91888149 
*
