! EnGrad PBEh-3c
%output 
xyzfile=True 
end 
%scf 
maxiter 250 
end
%output
Print[P_Hirshfeld] = 1
end
% maxcore
4000
*xyz 1 1
Sc   1.51258399  -1.35430947  -1.64858929 
C    0.46078285  -0.69451821   0.21813738 
N   -0.43800115  -1.40899899   0.93125661 
C   -0.88997694  -0.70931162   2.01729401 
C   -0.20723068   0.45607010   2.02948607 
N    0.61895368   0.44276351   0.93561802 
C    1.50034367   1.55187632   0.57446345 
H    1.82541887   2.06278480   1.47780373 
H    0.98073875   2.25921369  -0.06533811 
H    2.37992413   1.17100335   0.07087959 
C   -0.97702765  -2.71811158   0.58440733 
H   -0.43886255  -3.12947952  -0.26816844 
H   -2.03364548  -2.65191756   0.32210021 
H   -0.85716071  -3.39299464   1.42667264 
H   -1.58041407  -1.11158405   2.73452393 
H   -0.26548813   1.29028350   2.70078536 
C   -0.22433405   1.58957571  -2.83075213 
H   -0.83912679   1.11435648  -3.59691999 
H   -0.51731036   2.65068235  -2.84843376 
H   -0.73503412   1.23015645  -1.85181726 
H    0.72583527   1.35405830  -2.91395964 
*
