! EnGrad PBEh-3c
%output 
xyzfile=True 
end 
%scf 
maxiter 250 
end
%output
Print[P_Hirshfeld] = 1
end
% maxcore
4000
*xyz 1 1
Sc   1.51945152  -1.35630736  -1.64250861 
C    0.45693476  -0.69130564   0.23018223 
N   -0.44276023  -1.40908284   0.92743017 
C   -0.88495684  -0.71014394   2.01535334 
C   -0.20249551   0.45622644   2.02853875 
N    0.62073506   0.44198747   0.93191652 
C    1.49557838   1.55017481   0.57837029 
H    1.81855275   2.06262882   1.47843280 
H    0.98418816   2.25700153  -0.07205645 
H    2.38413205   1.16958166   0.06721831 
C   -0.97554261  -2.71622999   0.58420972 
H   -0.43960813  -3.12785433  -0.26670948 
H   -2.03217817  -2.65020192   0.32363944 
H   -0.85737914  -3.39435249   1.42782955 
H   -1.58739074  -1.11131149   2.73358036 
H   -0.26373921   1.29164884   2.70336633 
C   -0.33531675   1.60273578  -2.80356684 
H   -0.83038434   1.12406913  -3.59827593 
H   -0.48129862   2.64532058  -2.85000147 
H   -0.70370881   1.23857328  -1.87915731 
H    0.75821172   1.32883320  -2.91842350 
*
