! EnGrad PBEh-3c
%output 
xyzfile=True 
end 
%scf 
maxiter 250 
end
%output
Print[P_Hirshfeld] = 1
end
% maxcore
4000
*xyz 1 1
Sc   1.57337162  -1.36834675  -1.59768198 
C    0.46737788  -0.71061247   0.24370466 
N   -0.46031333  -1.40168180   0.93210944 
C   -0.87582485  -0.70879525   2.02992304 
C   -0.19969216   0.46249103   2.02900962 
N    0.61372048   0.44127541   0.93196193 
C    1.49019793   1.53939142   0.56580514 
H    1.78978248   2.06536943   1.47072157 
H    0.99153931   2.23951927  -0.10208239 
H    2.38625520   1.16722110   0.07951383 
C   -0.97883827  -2.71277874   0.58724715 
H   -0.43739450  -3.11778402  -0.26424087 
H   -2.03505648  -2.64457494   0.32909929 
H   -0.85221054  -3.39164354   1.42808463 
H   -1.61341443  -1.09619106   2.71457067 
H   -0.23876421   1.29071716   2.71957613 
C   -0.32932450   1.58436481  -2.81599637 
H   -0.92421468   1.17464686  -3.64560566 
H   -0.33629719   2.67388914  -2.86075913 
H   -0.71477057   1.23673777  -1.85237502 
H    0.68480423   1.28228814  -2.92304286 
*
