! EnGrad PBEh-3c
%output 
xyzfile=True 
end 
%scf 
maxiter 250 
end
%output
Print[P_Hirshfeld] = 1
end
% maxcore
4000
*xyz 1 1
Sc   1.59555791  -1.37358241  -1.58357752 
C    0.46284358  -0.70608745   0.23841787 
N   -0.44057809  -1.41326116   0.94455249 
C   -0.89037788  -0.70118069   2.02275798 
C   -0.20076233   0.46061595   2.02961762 
N    0.61704315   0.43706137   0.93636433 
C    1.48619243   1.53997230   0.56334589 
H    1.78656456   2.07364449   1.46133569 
H    0.98337300   2.23393638  -0.10969401 
H    2.38909161   1.16287041   0.09563051 
C   -0.98366538  -2.71170967   0.58822905 
H   -0.44018794  -3.10988788  -0.26496943 
H   -2.04371241  -2.64841882   0.33036390 
H   -0.84763853  -3.38800296   1.42553771 
H   -1.61650115  -1.09156476   2.71920436 
H   -0.22640270   1.28772788   2.72479393 
C   -0.27868435   1.56816441  -2.82864060 
H   -0.95856440   1.22867647  -3.60224336 
H   -0.32534495   2.63652708  -2.85916775 
H   -0.75977855   1.26821987  -1.88712939 
H    0.69213230   1.25334196  -2.94446641 
*
