9
autodE path point 0. E = -1539.048800191022 charge = -1 mult = 1 
Pt   -1.35217  -1.05373   0.67763
Cl   -0.32334  -0.96830   2.73825
Cl   -2.80942  -2.67395   1.18554
Cl   -2.06848  -0.77739  -1.49724
C     1.30911   1.09625  -0.62102
H     1.43281   2.17689  -0.60740
H     1.24079   0.72779   0.40140
H     2.16509   0.63469  -1.10795
H     0.40561   0.83774  -1.16921
9
autodE path point 1. E = -1539.048660208481 charge = -1 mult = 1 
Pt   -1.27231  -1.02316   0.63953
Cl   -0.30701  -0.88477   2.72642
Cl   -2.77844  -2.57429   1.19983
Cl   -1.97163  -0.86664  -1.55098
C     1.26472   1.06928  -0.59936
H     1.44510   2.13648  -0.45246
H     1.22834   0.57619   0.36862
H     2.07123   0.63294  -1.19245
H     0.32029   0.92714  -1.13079
9
autodE path point 2. E = -1539.048136680345 charge = -1 mult = 1 
Pt   -1.20020  -0.99295   0.60770
Cl   -0.30191  -0.80108   2.72216
Cl   -2.75740  -2.48039   1.19795
Cl   -1.86359  -0.93847  -1.60028
C     1.22289   1.04326  -0.58435
H     1.46363   2.07201  -0.30640
H     1.21717   0.42799   0.31370
H     1.97076   0.64998  -1.27643
H     0.24560   1.01633  -1.07351
9
autodE path point 3. E = -1539.047441622084 charge = -1 mult = 1 
Pt   -1.13513  -0.96236   0.58183
Cl   -0.29272  -0.71576   2.71542
Cl   -2.73734  -2.39580   1.19117
Cl   -1.76104  -0.99548  -1.63822
C     1.18189   1.01724  -0.57076
H     1.47879   1.99303  -0.18103
H     1.20131   0.29675   0.24815
H     1.87370   0.67640  -1.34285
H     0.18278   1.08720  -1.00603
9
autodE path point 4. E = -1539.046528954197 charge = -1 mult = 1 
Pt   -1.06126  -0.92494   0.55461
Cl   -0.27267  -0.61673   2.70290
Cl   -2.70716  -2.30467   1.17946
Cl   -1.65109  -1.05012  -1.67262
C     1.13208   0.98258  -0.55233
H     1.48646   1.89535  -0.06445
H     1.16938   0.16979   0.17521
H     1.77191   0.70252  -1.39273
H     0.12076   1.14758  -0.93100
9
autodE path point 5. E = -1539.045673918575 charge = -1 mult = 1 
Pt   -0.99752  -0.89372   0.53175
Cl   -0.24999  -0.54064   2.69061
Cl   -2.67509  -2.23279   1.16752
Cl   -1.56830  -1.08596  -1.69735
C     1.08614   0.95263  -0.53552
H     1.48491   1.81586   0.01236
H     1.13008   0.08580   0.12472
H     1.69868   0.71330  -1.41477
H     0.07809   1.18520  -0.87835
9
autodE path point 6. E = -1539.044897872306 charge = -1 mult = 1 
Pt   -0.91610  -0.85822   0.50304
Cl   -0.21817  -0.45897   2.67589
Cl   -2.62707  -2.14831   1.15065
Cl   -1.47841  -1.11896  -1.72466
C     1.03530   0.92249  -0.51790
H     1.47219   1.72082   0.08387
H     1.07020   0.00112   0.07931
H     1.61638   0.71422  -1.41845
H     0.03399   1.22600  -0.82921
9
autodE path point 7. E = -1539.043595894341 charge = -1 mult = 1 
Pt   -0.80323  -0.81905   0.46571
Cl   -0.17507  -0.37264   2.65938
Cl   -2.55262  -2.04593   1.12529
Cl   -1.37908  -1.15038  -1.75492
C     0.96351   0.88605  -0.49506
H     1.44261   1.60874   0.14816
H     0.98286  -0.08922   0.04348
H     1.51916   0.70026  -1.40025
H    -0.00542   1.28371  -0.78792
9
autodE path point 8. E = -1539.035646244969 charge = -1 mult = 1 
Pt   -0.66268  -0.75822   0.41464
Cl   -0.12280  -0.28935   2.63118
Cl   -2.46640  -1.94456   1.09354
Cl   -1.27358  -1.17990  -1.78466
C     0.83920   0.85127  -0.46339
H     1.39277   1.50724   0.19884
H     0.93440  -0.27023   0.05987
H     1.40717   0.67583  -1.36797
H    -0.05164   1.40481  -0.77963
9
autodE path point 9. E = -1539.025797816812 charge = -1 mult = 1 
Pt   -0.62202  -0.72028   0.39486
Cl   -0.10372  -0.26023   2.61430
Cl   -2.44679  -1.91354   1.08312
Cl   -1.23444  -1.19008  -1.79490
C     0.78021   0.86422  -0.46037
H     1.37036   1.48352   0.21214
H     0.96374  -0.41772   0.09847
H     1.36198   0.67206  -1.35890
H    -0.07227   1.47593  -0.78736
9
autodE path point 10. E = -1539.021788902208 charge = -1 mult = 1 
Pt   -0.56136  -0.68607   0.36937
Cl   -0.07766  -0.21515   2.58865
Cl   -2.44990  -1.87529   1.07712
Cl   -1.18188  -1.20975  -1.80893
C     0.71951   0.89909  -0.46106
H     1.35424   1.45496   0.23216
H     0.98609  -0.61131   0.13177
H     1.30455   0.68255  -1.35777
H    -0.09638   1.55496  -0.77014
9
autodE path point 11. E = -1539.031441505518 charge = -1 mult = 1 
Pt   -0.46455  -0.66687   0.30881
Cl    0.06390  -0.01591   2.47910
Cl   -2.47693  -1.69578   1.05812
Cl   -0.91617  -1.30728  -1.88097
C     0.59059   0.94668  -0.42006
H     1.31055   1.32471   0.30473
H     0.97717  -1.03430   0.10847
H     1.08761   0.73787  -1.36676
H    -0.17217   1.71088  -0.59142
