! EnGrad PBEh-3c
%output 
xyzfile=True 
end 
%scf 
maxiter 250 
end
%output
Print[P_Hirshfeld] = 1
end
% maxcore
4000
*xyz 1 1
Ir   0.46217623  -0.69982904   0.90178085 
C   -0.08495389  -2.72800368   1.64503450 
C    0.78494369  -2.10106830   2.56703087 
C    1.87209364  -2.29966082   0.58159582 
C    0.61656889  -2.85235831   0.39911308 
C    2.00425790  -1.82777894   1.94606444 
N   -0.98383706  -0.00305121  -0.43344249 
C   -2.42722732   0.06675904   0.02580602 
C   -2.87469785   1.48254249   0.33849626 
H   -3.91147197   1.46286801   0.70024600 
H   -2.83468170   2.12174032  -0.53476516 
H   -2.30210490   1.92109040   1.13402483 
C   -3.38230124  -0.59212319  -0.97145080 
H   -2.45288095  -0.49662347   0.93141270 
H   -4.37182320  -0.67631373  -0.48887106 
H   -3.53948645  -0.00382875  -1.87136327 
H   -3.07498919  -1.58749671  -1.24410833 
C   -0.71047865   0.28586841  -1.66355890 
C    0.57663823   0.19919418  -2.27898717 
H   -1.52325449   0.55605771  -2.30022244 
C    1.90102860   0.20760596  -1.60319978 
C    2.87322767   0.00679145  -2.63592184 
S    0.73537769   0.09865303  -4.00173164 
C    2.44053152  -0.03053367  -3.90490624 
H    2.20147863   0.95172578  -0.84720705 
H    3.93568780   0.02259682  -2.37521906 
H    3.04179143  -0.14838253  -4.79067387 
H   -0.96040964  -3.31358885   1.90097254 
H    0.54642130  -1.97093945   3.64022560 
H    2.88826039  -1.44127878   2.37301884 
O    1.67999708   1.73269862   0.76532883 
O   -0.00674438   1.01622206   1.97062500 
C    0.89212015   1.98478250   1.52336830 
C    0.72934089   3.37446138   2.17453366 
H    0.82136066   4.11209953   1.37306261 
H    1.59538333   3.53364349   2.83053726 
H   -0.16507689   3.51813691   2.72769326 
H    2.73610203  -2.43583930  -0.07734781 
H    0.27110698  -3.44645660  -0.42640437 
*
