! EnGrad PBEh-3c
%output 
xyzfile=True 
end 
%scf 
maxiter 250 
end
%output
Print[P_Hirshfeld] = 1
end
% maxcore
4000
*xyz 1 1
Ir   0.45728249  -0.70037270   0.90902346 
C   -0.08406563  -2.72810428   1.63786886 
C    0.78515189  -2.10021381   2.57829182 
C    1.88438596  -2.30344349   0.58412364 
C    0.61440103  -2.85663603   0.40143643 
C    2.00034737  -1.83024231   1.94180139 
N   -0.98455660  -0.00340101  -0.43730835 
C   -2.42628493   0.06923177   0.02113744 
C   -2.87705428   1.48208758   0.34052249 
H   -3.91023252   1.46155824   0.69882403 
H   -2.83469729   2.12296290  -0.53514809 
H   -2.29873551   1.92147615   1.13673242 
C   -3.38503729  -0.59046916  -0.96832984 
H   -2.45262246  -0.50077355   0.93564741 
H   -4.36893836  -0.67587044  -0.49017381 
H   -3.53961123  -0.00271254  -1.87202751 
H   -3.07424636  -1.59006740  -1.24605022 
C   -0.70980850   0.28460644  -1.66013139 
C    0.59473471   0.20019447  -2.26773962 
H   -1.52787498   0.55760995  -2.30341031 
C    1.89212754   0.22203615  -1.62295960 
C    2.87974658   0.00694429  -2.62289835 
S    0.73535251   0.09587416  -3.99829859 
C    2.43444517  -0.03261677  -3.90970372 
H    2.19393559   0.93709576  -0.84736449 
H    3.93277296   0.02202716  -2.37632250 
H    3.04118860  -0.14765324  -4.79154315 
H   -0.96396302  -3.30783307   1.89861038 
H    0.54564956  -1.96828060   3.63345369 
H    2.89216398  -1.43750820   2.37793456 
O    1.72824343   1.71871662   0.72008531 
O    0.00412780   1.02381385   1.96371115 
C    0.83409929   1.99098228   1.57670368 
C    0.73740569   3.36944978   2.16798743 
H    0.82044458   4.11256356   1.37383208 
H    1.59411923   3.53344890   2.82950301 
H   -0.17011358   3.51845243   2.73022021 
H    2.73294756  -2.43002273  -0.07732526 
H    0.27212969  -3.44430721  -0.42998198 
*
