! EnGrad PBEh-3c
%output 
xyzfile=True 
end 
%scf 
maxiter 250 
end
%output
Print[P_Hirshfeld] = 1
end
% maxcore
4000
*xyz 1 1
Ir   0.44794045  -0.70253549   0.94178424 
C   -0.08377030  -2.72402385   1.62497473 
C    0.78515183  -2.10673184   2.58672785 
C    1.90973764  -2.33049986   0.60564649 
C    0.62963631  -2.87140560   0.40652769 
C    2.00432335  -1.83187904   1.94722083 
N   -0.99268960  -0.00828396  -0.44510370 
C   -2.42427867   0.06935931   0.01648301 
C   -2.87684575   1.48524529   0.34913398 
H   -3.90885537   1.45279084   0.69362934 
H   -2.83528961   2.12858642  -0.53164292 
H   -2.28331417   1.92081882   1.14919700 
C   -3.38840936  -0.58821356  -0.96610514 
H   -2.45062989  -0.51658783   0.94415096 
H   -4.36118265  -0.67341885  -0.49270388 
H   -3.54121014   0.00253858  -1.87263114 
H   -3.07343837  -1.59525111  -1.25515738 
C   -0.69498564   0.28586798  -1.66135615 
C    0.63669558   0.20807474  -2.23117393 
H   -1.53956549   0.56188471  -2.31512608 
C    1.88056967   0.30317790  -1.70043697 
C    2.88682442   0.00762799  -2.61696461 
S    0.73315377   0.07814157  -3.97758691 
C    2.42299157  -0.04668258  -3.90359410 
H    2.14573175   0.85282491  -0.83496011 
H    3.93172911   0.01941057  -2.37401053 
H    3.03444613  -0.14381217  -4.79585069 
H   -0.98462148  -3.27117030   1.87963526 
H    0.53433380  -1.94853624   3.61855091 
H    2.89612865  -1.42159007   2.39889716 
O    1.72592484   1.70596255   0.72426806 
O    0.02642462   1.05259587   1.95390667 
C    0.82339275   1.95837088   1.58338824 
C    0.74079801   3.35115521   2.15908414 
H    0.81716239   4.11039369   1.37291863 
H    1.59189985   3.52988153   2.82332037 
H   -0.17762907   3.52260010   2.73413024 
H    2.73066759  -2.39466065  -0.08632773 
H    0.27950333  -3.42950437  -0.45113032 
*
