! EnGrad PBEh-3c
%output 
xyzfile=True 
end 
%scf 
maxiter 250 
end
%output
Print[P_Hirshfeld] = 1
end
% maxcore
4000
*xyz 1 1
Ir   0.44293005  -0.71244505   0.95429166 
C   -0.08452209  -2.72035128   1.61864186 
C    0.78307026  -2.10803500   2.59076884 
C    1.92647441  -2.33950353   0.61590458 
C    0.63956517  -2.88084970   0.40925754 
C    2.00775621  -1.83416126   1.95464313 
N   -0.99306011  -0.01000986  -0.44481548 
C   -2.41881332   0.06494241   0.01329772 
C   -2.87322588   1.48340866   0.35439559 
H   -3.90857195   1.44783278   0.69265840 
H   -2.83484098   2.13187794  -0.52570658 
H   -2.27549100   1.91883526   1.15661888 
C   -3.38844003  -0.58726138  -0.96714256 
H   -2.44971114  -0.52428042   0.94423526 
H   -4.36005267  -0.67254089  -0.49343422 
H   -3.54226113   0.00627297  -1.87191979 
H   -3.07404335  -1.59456718  -1.26102989 
C   -0.69118378   0.28687655  -1.65504519 
C    0.62329831   0.22222378  -2.23416876 
H   -1.53517863   0.56191336  -2.32013219 
C    1.88068127   0.32756960  -1.74433203 
C    2.89844827   0.02130546  -2.62618543 
S    0.73245060   0.06289586  -3.95990391 
C    2.42168326  -0.06052330  -3.90606062 
H    2.12321115   0.81290406  -0.80493879 
H    3.93438282   0.01699374  -2.37211669 
H    3.02599606  -0.14302134  -4.79461124 
H   -0.99951182  -3.24414432   1.86332648 
H    0.52335249  -1.93478439   3.61213117 
H    2.89544487  -1.41137246   2.41415233 
O    1.70801166   1.69388481   0.74354096 
O    0.03025943   1.05390507   1.95377899 
C    0.84071613   1.95870077   1.56884986 
C    0.73985342   3.34347083   2.15548831 
H    0.81472046   4.10452522   1.37294823 
H    1.58990595   3.52638797   2.81760288 
H   -0.17634135   3.52212325   2.73216391 
H    2.73185293  -2.37005620  -0.09045761 
H    0.28893270  -3.41681679  -0.46439761 
*
