! EnGrad PBEh-3c
%output 
xyzfile=True 
end 
%scf 
maxiter 250 
end
%output
Print[P_Hirshfeld] = 1
end
% maxcore
4000
*xyz -1 1
Pt  -0.74546851  -0.74702217   0.42947577 
Cl  -0.11530797  -0.28841384   2.63705010 
Cl  -2.61621738  -2.02262675   1.12584413 
Cl  -1.29679098  -1.19713699  -1.80152726 
C    0.82231744   0.97501530  -0.50956044 
H    1.40260725   1.61158200   0.15451999 
H    1.20738337  -0.61645249   0.19881456 
H    1.40080088   0.74710660  -1.40567831 
H   -0.05932409   1.53794521  -0.82892482 
*
