! EnGrad PBEh-3c
%output 
xyzfile=True 
end 
%scf 
maxiter 250 
end
%output
Print[P_Hirshfeld] = 1
end
% maxcore
4000
*xyz -1 1
Pt  -0.65534440  -0.75485665   0.42333948 
Cl  -0.13277446  -0.30122816   2.63684237 
Cl  -2.58101664  -2.00425655   1.11544601 
Cl  -1.30934885  -1.18585640  -1.78644837 
C    0.84372184   0.91897988  -0.49902488 
H    1.40331311   1.60400882   0.16057501 
H    1.08012775  -0.50792638   0.17358736 
H    1.41060796   0.73244376  -1.39626897 
H   -0.05992252   1.49920301  -0.82757723 
*
