! EnGrad PBEh-3c
%output 
xyzfile=True 
end 
%scf 
maxiter 250 
end
%output
Print[P_Hirshfeld] = 1
end
% maxcore
4000
*xyz -1 1
Pt  -0.62457264  -0.75697745   0.41626336 
Cl  -0.13614925  -0.30488052   2.63810155 
Cl  -2.54819827  -1.98695745   1.10700182 
Cl  -1.30823195  -1.17998203  -1.77930659 
C    0.83635296   0.89800579  -0.48111092 
H    1.39975280   1.58528216   0.16323873 
H    1.00928638  -0.43734602   0.14907682 
H    1.41810222   0.71743651  -1.39426725 
H   -0.04747387   1.46548496  -0.81830175 
*
