! EnGrad PBEh-3c
%output 
xyzfile=True 
end 
%scf 
maxiter 250 
end
%output
Print[P_Hirshfeld] = 1
end
% maxcore
4000
*xyz -1 1
Pt  -0.59326598  -0.75020366   0.40075069 
Cl  -0.12735401  -0.29548136   2.63447512 
Cl  -2.48160019  -1.94493037   1.09025553 
Cl  -1.28403523  -1.17583096  -1.77589244 
C    0.81830532   0.85982974  -0.46266992 
H    1.38845429   1.53432636   0.18111205 
H    0.91186998  -0.34561640   0.10161796 
H    1.40592544   0.68934973  -1.37329407 
H   -0.04048297   1.42687232  -0.79526148 
*
