! EnGrad PBEh-3c
%output 
xyzfile=True 
end 
%scf 
maxiter 250 
end
%output
Print[P_Hirshfeld] = 1
end
% maxcore
4000
*xyz -1 1
Pt  -0.61020698  -0.74867355   0.40372936 
Cl  -0.12317147  -0.29175541   2.63230248 
Cl  -2.47946086  -1.94358935   1.09019134 
Cl  -1.27837887  -1.17701973  -1.77940017 
C    0.81852737   0.86238707  -0.46486866 
H    1.38646964   1.52957586   0.18484447 
H    0.93130077  -0.35558671   0.10133377 
H    1.40065985   0.68709901  -1.37052590 
H   -0.04801771   1.43535783  -0.79652671 
*
