! EnGrad PBEh-3c
%output 
xyzfile=True 
end 
%scf 
maxiter 250 
end
%output
Print[P_Hirshfeld] = 1
end
% maxcore
4000
*xyz -1 1
C   -1.89878006   0.00331281   0.55744469 
C   -1.71184972   1.06024064   1.45768758 
C   -3.30224321  -0.13693827   0.16001330 
C   -4.29951736   0.76156074   0.49099252 
C   -4.00651238   1.84758713   1.28147354 
C   -2.71169073   2.00430492   1.76214138 
H   -2.17745827  -2.56517635  -2.20083620 
H   -3.62375237  -1.04110324  -0.30974696 
H   -2.52946962   2.82860331   2.41419269 
H   -5.32228666   0.58325993   0.16483105 
H   -4.78364105   2.53484871   1.58230210 
C   -0.41945999   1.28495276   2.29025363 
C    0.79566736   0.34405742   2.15417777 
H   -0.72246218   1.24325039   3.32352100 
H   -0.09657165   2.27951262   2.09209118 
C    1.67227463   0.65929440   0.99417616 
H    0.48732003  -0.68820312   2.13593853 
H    1.39505048   0.45607879   3.06633961 
C    1.41775621   0.13384554  -0.28569680 
C    2.32844030   0.39834678  -1.30807114 
C    3.35183113   1.33015250  -1.12272161 
C    2.79341058   1.48301496   1.16992016 
C    3.56773765   1.90496617   0.10153623 
H    2.31345468  -0.15333885  -2.21357584 
H    4.05295656   1.51838867  -1.94354037 
H    3.08834996   1.77028364   2.17835130 
H    4.30001306   2.69840939   0.23017932 
Pd  -0.04880055  -1.27787007  -0.42743499 
Br  -1.57990829  -3.64305430  -0.09124656 
P    1.53499496  -3.00270508  -0.18789330 
H    1.49519459  -3.67752358   1.05466986 
C    0.06861603  -1.64192458  -3.78155133 
O    1.30069526  -1.72018083  -4.19167841 
O   -0.60078278  -2.54195025  -3.24284817 
O   -0.56242025  -0.42645829  -3.92955638 
H    2.88070868  -2.74644978  -0.18519957 
H    1.50702864  -4.11055263  -1.02354045 
H    0.04948926   0.24662482  -4.21902589 
*
