! EnGrad PBEh-3c
%output 
xyzfile=True 
end 
%scf 
maxiter 250 
end
%output
Print[P_Hirshfeld] = 1
end
% maxcore
4000
*xyz -1 1
C   -1.89059184  -0.00154033   0.54340905 
C   -1.71356498   1.05817838   1.45677453 
C   -3.30079414  -0.14961956   0.17833179 
C   -4.30528855   0.75317895   0.49997418 
C   -4.00869809   1.84890448   1.28902432 
C   -2.72307431   1.99610861   1.76864574 
H   -2.14523345  -2.54961720  -2.19547964 
H   -3.62536949  -1.05483261  -0.30187805 
H   -2.52482015   2.83463739   2.41144255 
H   -5.32831909   0.57582749   0.17841736 
H   -4.78728282   2.53354719   1.59155273 
C   -0.41958092   1.29057027   2.28059915 
C    0.79382774   0.34526503   2.15154729 
H   -0.71933110   1.25883541   3.31693400 
H   -0.09412529   2.28777626   2.07255976 
C    1.68125598   0.64919390   0.99204039 
H    0.48154737  -0.68835401   2.13167704 
H    1.38984457   0.46092590   3.06209153 
C    1.42591437   0.12576831  -0.28679863 
C    2.33686583   0.39266616  -1.30946125 
C    3.35450055   1.32810219  -1.12785140 
C    2.78428341   1.49315438   1.16852990 
C    3.57725845   1.89773310   0.10483888 
H    2.31510709  -0.15921836  -2.22139978 
H    4.05524913   1.51568068  -1.94265117 
H    3.08370427   1.77223432   2.17690542 
H    4.30704864   2.69141119   0.23231934 
Pd  -0.08094329  -1.26788322  -0.40562470 
Br  -1.58701353  -3.62959285  -0.12802674 
P    1.54030940  -3.00102999  -0.18907301 
H    1.48374587  -3.67318629   1.05728073 
C    0.08227447  -1.64042188  -3.79647932 
O    1.28839463  -1.71855477  -4.18065646 
O   -0.62316416  -2.53568214  -3.22590143 
O   -0.56051457  -0.42353876  -3.93049994 
H    2.88716041  -2.74681045  -0.17604835 
H    1.51002155  -4.11328370  -1.01964814 
H    0.06388550   0.24544805  -4.23009943 
*
