! EnGrad PBEh-3c
%output 
xyzfile=True 
end 
%scf 
maxiter 250 
end
%output
Print[P_Hirshfeld] = 1
end
% maxcore
4000
*xyz -1 1
C   -1.88883067  -0.00452577   0.53035059 
C   -1.71184802   1.05547691   1.45510178 
C   -3.29506633  -0.16485423   0.19999703 
C   -4.31107966   0.74062134   0.51437342 
C   -4.01346751   1.84853481   1.29861832 
C   -2.73482585   1.98428798   1.77529735 
H   -2.10232248  -2.52855285  -2.18888420 
H   -3.62853533  -1.07257790  -0.28973229 
H   -2.51939764   2.84152375   2.40787755 
H   -5.33644734   0.56541231   0.19710208 
H   -4.79275806   2.53186360   1.60377709 
C   -0.42134568   1.29415860   2.26371780 
C    0.79091913   0.34895691   2.14791736 
H   -0.71499653   1.28075163   3.30896571 
H   -0.09042995   2.29955119   2.04534956 
C    1.69138984   0.64003834   0.98649995 
H    0.47342907  -0.68877551   2.12645688 
H    1.38339880   0.46676059   3.05721417 
C    1.43221497   0.11371003  -0.28622932 
C    2.34642142   0.38596923  -1.30943962 
C    3.36091110   1.32331174  -1.13416127 
C    2.77639776   1.50185130   1.16740253 
C    3.58632017   1.89033305   0.10840187 
H    2.31795714  -0.16703617  -2.23222471 
H    4.05897306   1.51217896  -1.94163266 
H    3.07725189   1.77567993   2.17491206 
H    4.31666690   2.68197565   0.23503507 
Pd  -0.11461595  -1.25718647  -0.37939873 
Br  -1.59700853  -3.61157135  -0.17652218 
P    1.53981676  -2.99624358  -0.18916328 
H    1.46890301  -3.66725771   1.06007887 
C    0.09876509  -1.63367652  -3.80856001 
O    1.26647381  -1.71940393  -4.16633425 
O   -0.64723333  -2.52467312  -3.20860537 
O   -0.55427323  -0.42190491  -3.93459357 
H    2.89762953  -2.74706058  -0.16336111 
H    1.51452862  -4.11756230  -1.01478547 
H    0.08168711   0.24242062  -4.24444190 
*
