! EnGrad PBEh-3c
%output 
xyzfile=True 
end 
%scf 
maxiter 250 
end
%output
Print[P_Hirshfeld] = 1
end
% maxcore
4000
*xyz -1 1
C   -1.89147394  -0.00631497   0.51108606 
C   -1.70906203   1.04872844   1.44703127 
C   -3.28717403  -0.20193510   0.24598513 
C   -4.32052267   0.70799382   0.55605635 
C   -4.03211943   1.83940154   1.31921645 
C   -2.75053820   1.95965352   1.79346288 
H   -1.99281631  -2.47475226  -2.17576871 
H   -3.63625674  -1.11315659  -0.25445681 
H   -2.50853972   2.85233076   2.39630159 
H   -5.35609676   0.53741371   0.24553177 
H   -4.80708360   2.52735753   1.63430985 
C   -0.42425399   1.30629487   2.22085415 
C    0.78364130   0.35713016   2.13480724 
H   -0.70291640   1.33810461   3.28558271 
H   -0.08268815   2.32372004   1.97519066 
C    1.70946361   0.62329205   0.97384620 
H    0.45359396  -0.68729706   2.11432747 
H    1.36789647   0.48090361   3.04688325 
C    1.44275757   0.08381691  -0.28400451 
C    2.36624080   0.36609012  -1.31209385 
C    3.37926734   1.30884812  -1.14106062 
C    2.76646764   1.51620748   1.16268924 
C    3.60244931   1.87391890   0.11273586 
H    2.32656574  -0.18378988  -2.25490105 
H    4.07170082   1.50362378  -1.94182956 
H    3.06054004   1.78599076   2.17061694 
H    4.34141305   2.65841512   0.24184262 
Pd  -0.18332484  -1.23671791  -0.32127739 
Br  -1.62324796  -3.56582172  -0.29653430 
P    1.53208110  -2.98192996  -0.18724797 
H    1.43200422  -3.65190662   1.06578074 
C    0.09239584  -1.61543963  -3.80876717 
O    1.24180686  -1.72930683  -4.14328986 
O   -0.69360371  -2.48942449  -3.17584092 
O   -0.52986364  -0.41434021  -3.95224258 
H    2.92107431  -2.74806005  -0.13022234 
H    1.52642361  -4.12751360  -1.00175463 
H    0.12132578   0.23198638  -4.27900134 
*
