! EnGrad PBEh-3c
%output 
xyzfile=True 
end 
%scf 
maxiter 250 
end
%output
Print[P_Hirshfeld] = 1
end
% maxcore
4000
*xyz 1 1
Sc   1.57262211  -1.40057304  -1.57719750 
C    0.43505236  -0.68790429   0.22755311 
N   -0.46618432  -1.40077663   0.92437011 
C   -0.87235589  -0.71134272   2.02942214 
C   -0.19862536   0.45954959   2.02723773 
N    0.61923886   0.44313545   0.93506730 
C    1.49495195   1.54360645   0.58644943 
H    1.79755929   2.12446373   1.45456166 
H    0.99746636   2.21079334  -0.11253037 
H    2.41826513   1.17555200   0.14485441 
C   -0.98699042  -2.71391038   0.58851854 
H   -0.45389978  -3.11843713  -0.26751659 
H   -2.04505514  -2.64632239   0.34461500 
H   -0.85552093  -3.39035550   1.42980941 
H   -1.60106908  -1.09006151   2.72545902 
H   -0.26487618   1.28080310   2.71988929 
C   -0.39400673   1.64782890  -2.78583845 
H   -0.97493953   1.26076411  -3.62156545 
H   -0.40829062   2.73487237  -2.80120670 
H   -0.84740754   1.31106703  -1.85492179 
H    1.03408751   0.96726343  -3.11703824 
*
