! EnGrad PBEh-3c
%output 
xyzfile=True 
end 
%scf 
maxiter 250 
end
%output
Print[P_Hirshfeld] = 1
end
% maxcore
4000
*xyz 1 1
Sc   1.60369772  -1.39793706  -1.55642669 
C    0.45748251  -0.69703384   0.21959461 
N   -0.47770915  -1.38860216   0.92444953 
C   -0.87249094  -0.71425763   2.04266163 
C   -0.19907032   0.45292740   2.04939545 
N    0.59873049   0.45355994   0.94629771 
C    1.50077202   1.55887891   0.56750834 
H    1.76319943   2.13207119   1.46070151 
H    0.99759375   2.20780381  -0.12757021 
H    2.41429835   1.17807508   0.14879696 
C   -0.99163888  -2.70832781   0.58532138 
H   -0.46979086  -3.10491759  -0.28363928 
H   -2.05056253  -2.64449673   0.35625180 
H   -0.84200850  -3.39299439   1.41760604 
H   -1.58630639  -1.10223502   2.73663466 
H   -0.24563303   1.27334449   2.73385391 
C   -0.25107600   1.55236772  -2.85942182 
H   -0.98141127   1.30836547  -3.62218770 
H   -0.30519563   2.72813833  -2.82598824 
H   -0.82302582   1.32358285  -1.85824942 
H    0.76018321   0.98224560  -3.05550327 
*
