! EnGrad PBEh-3c
%output 
xyzfile=True 
end 
%scf 
maxiter 250 
end
%output
Print[P_Hirshfeld] = 1
end
% maxcore
4000
*xyz 1 1
Sc   1.61980273  -1.39775911  -1.54674033 
C    0.45686244  -0.69301119   0.23293981 
N   -0.47735557  -1.38593921   0.91989433 
C   -0.87118624  -0.71727366   2.04473696 
C   -0.19658034   0.45130508   2.05584319 
N    0.59976621   0.45567043   0.94003877 
C    1.49338314   1.56240056   0.57175262 
H    1.74629395   2.13592607   1.46076233 
H    0.99644919   2.20895284  -0.13884711 
H    2.41674697   1.17742140   0.14945397 
C   -0.99289123  -2.70470675   0.58428263 
H   -0.47809867  -3.09731898  -0.29129532 
H   -2.05433504  -2.64379850   0.36206757 
H   -0.83503443  -3.39417789   1.41126752 
H   -1.58159440  -1.10985863   2.74444970 
H   -0.23633213   1.27154711   2.74367428 
C   -0.21235064   1.53327774  -2.86696754 
H   -0.98305460   1.32784855  -3.62687269 
H   -0.24333682   2.69661215  -2.84111075 
H   -0.79557651   1.33011826  -1.88140195 
H    0.62852359   0.99362924  -3.02775541 
*
