! EnGrad PBEh-3c
%output 
xyzfile=True 
end 
%scf 
maxiter 250 
end
%output
Print[P_Hirshfeld] = 1
end
% maxcore
4000
*xyz 1 1
Sc   1.62825964  -1.39821815  -1.54224342 
C    0.45272146  -0.68739916   0.24564309 
N   -0.47513506  -1.38784776   0.91866083 
C   -0.86996586  -0.71776157   2.04285849 
C   -0.19295297   0.45130984   2.05285660 
N    0.60498320   0.45567137   0.93623630 
C    1.48575263   1.55921262   0.57706881 
H    1.73793658   2.13698966   1.46095758 
H    0.99589803   2.21131626  -0.14631995 
H    2.41766681   1.17661648   0.14888694 
C   -0.99229271  -2.70277453   0.58302002 
H   -0.48228161  -3.09333914  -0.29418139 
H   -2.05674166  -2.64344632   0.36441009 
H   -0.83173623  -3.39422346   1.40847919 
H   -1.58154738  -1.11454668   2.74892651 
H   -0.23155987   1.27255181   2.75016012 
C   -0.27973716   1.57716290  -2.84400353 
H   -0.97594019   1.33305863  -3.62784866 
H   -0.19786163   2.65466842  -2.85237954 
H   -0.76322473   1.32864069  -1.91124160 
H    0.60796199   0.98347164  -3.01962059 
*
