! EnGrad PBEh-3c
%output 
xyzfile=True 
end 
%scf 
maxiter 250 
end
%output
Print[P_Hirshfeld] = 1
end
% maxcore
4000
*xyz 1 1
Sc   1.64297377  -1.39727548  -1.53224019 
C    0.45416105  -0.68534127   0.24967534 
N   -0.47521555  -1.38763319   0.92130671 
C   -0.86936619  -0.71864894   2.04525537 
C   -0.18923322   0.45233885   2.05517959 
N    0.60500743   0.45786590   0.94032914 
C    1.48039501   1.55957984   0.57480697 
H    1.72153963   2.14091326   1.46257468 
H    0.99616039   2.21150814  -0.15589834 
H    2.41533144   1.17820884   0.15226274 
C   -0.99302526  -2.70032053   0.58049221 
H   -0.49029522  -3.08576139  -0.30143977 
H   -2.05987105  -2.64249597   0.37011362 
H   -0.82472627  -3.39452534   1.40219989 
H   -1.57678755  -1.12156599   2.75480135 
H   -0.22217020   1.26985042   2.75923557 
C   -0.29439525   1.57877568  -2.84616100 
H   -0.97963407   1.34852294  -3.63615744 
H   -0.12558569   2.62498909  -2.86880188 
H   -0.73704410   1.32889414  -1.92817671 
H    0.52216721   0.98366478  -2.99877608 
*
