! EnGrad PBEh-3c
%output 
xyzfile=True 
end 
%scf 
maxiter 250 
end
%output
Print[P_Hirshfeld] = 1
end
% maxcore
4000
*xyz 1 1
Sc   1.68557094  -1.37663153  -1.49660021 
C    0.44928197  -0.68269583   0.24813583 
N   -0.46638608  -1.38877713   0.93879058 
C   -0.85660689  -0.72150833   2.06081820 
C   -0.18133273   0.45159159   2.07124471 
N    0.60427239   0.45584163   0.95643081 
C    1.45991972   1.56630726   0.57534925 
H    1.66295176   2.17224983   1.45688937 
H    0.99035884   2.19248333  -0.18043589 
H    2.40631663   1.19778657   0.19287485 
C   -0.99179081  -2.69152982   0.57529093 
H   -0.51948338  -3.04793347  -0.33590755 
H   -2.06493074  -2.63172246   0.40144348 
H   -0.79294222  -3.40411083   1.37277430 
H   -1.55361648  -1.13675422   2.76911330 
H   -0.18623712   1.25347710   2.79241029 
C   -0.34544335   1.57779911  -2.87842180 
H   -1.07712963   1.43787476  -3.68790469 
H    0.13181260   2.55114728  -2.92133939 
H   -0.79659215   1.37246807  -1.89054853 
H    0.44528486   0.85824789  -3.01866559 
*
