! EnGrad PBEh-3c
%output 
xyzfile=True 
end 
%scf 
maxiter 250 
end
%output
Print[P_Hirshfeld] = 1
end
% maxcore
4000
*xyz 1 1
Sc   1.69448251  -1.35991527  -1.48952052 
C    0.45124734  -0.68169316   0.25163397 
N   -0.46644747  -1.38785165   0.93643502 
C   -0.84678536  -0.72867074   2.06933750 
C   -0.17543533   0.44382812   2.08228459 
N    0.59586783   0.45957417   0.95607282 
C    1.45491268   1.57095420   0.58094978 
H    1.64370957   2.19348288   1.45439221 
H    0.97976831   2.17754587  -0.18580284 
H    2.41350704   1.20791925   0.21512083 
C   -0.99007808  -2.69071818   0.57568346 
H   -0.52956435  -3.02922234  -0.34821601 
H   -2.06213763  -2.62380276   0.41781337 
H   -0.77981558  -3.41441300   1.35964665 
H   -1.54792750  -1.13759078   2.77609174 
H   -0.17506129   1.24725681   2.80187330 
C   -0.33254903   1.54217615  -2.88807395 
H   -1.07690220   1.51345465  -3.63576062 
H    0.16677047   2.47426337  -2.93130001 
H   -0.83830815   1.44798276  -1.94263182 
H    0.42660121   0.78404060  -3.05450951 
*
