! EnGrad PBEh-3c
%output 
xyzfile=True 
end 
%scf 
maxiter 250 
end
%output
Print[P_Hirshfeld] = 1
end
% maxcore
4000
*xyz 1 1
Ir   0.51128986  -0.77259178   0.68822032 
C   -0.03567184  -2.83831779   1.25250186 
C    0.32903870  -2.11656088   2.43570077 
C    2.11182955  -2.10496554   0.95971240 
C    1.05274442  -2.83431600   0.35529683 
C    1.66732416  -1.75319698   2.26871898 
N   -1.06541437  -0.07475246  -0.46261422 
C   -2.46140368  -0.07545959   0.00997904 
C   -2.85439480   1.23182917   0.67003510 
H   -3.87997854   1.21775757   1.03959846 
H   -2.75732254   2.06409288  -0.02727149 
H   -2.26350870   1.41639730   1.56179669 
C   -3.51399648  -0.45175080  -1.01927352 
H   -2.51217342  -0.83835050   0.78735801 
H   -4.48066281  -0.60454991  -0.54553081 
H   -3.66929038   0.32541122  -1.77042555 
H   -3.25755166  -1.38440390  -1.52499267 
C   -0.82255504   0.23491316  -1.68176562 
C    0.47044781   0.22471774  -2.28353005 
H   -1.62784603   0.53030179  -2.34806526 
C    1.61878767  -0.12307877  -1.62620765 
C    2.75140440  -0.13825104  -2.46846974 
S    0.75142515   0.26272355  -3.97952858 
C    2.41502770   0.03483068  -3.78141701 
H    2.24781762   1.21833550  -0.82235087 
H    3.78876335  -0.23661384  -2.17944253 
H    3.06589972  -0.04102824  -4.63929571 
H   -0.82735453  -3.57345567   1.22302745 
H   -0.25472696  -2.04988440   3.34018378 
H    2.31047573  -1.36241234   3.04180009 
O    1.98934319   2.01823596   0.42024581 
O    0.34561995   1.16483188   1.53647733 
C    1.02445334   2.15130609   1.24124548 
C    0.90927274   3.46317836   1.92495797 
H    0.87783157   4.25883227   1.18195235 
H    1.77795347   3.65024792   2.55741584 
H    0.01695618   3.49427129   2.54161840 
H    3.14382497  -2.13428400   0.64930338 
H    1.10631811  -3.45396749  -0.52696068 
*
