! EnGrad PBEh-3c
%output 
xyzfile=True 
end 
%scf 
maxiter 250 
end
%output
Print[P_Hirshfeld] = 1
end
% maxcore
4000
*xyz 1 1
Ir   0.54712178  -0.74219947   0.65358156 
C   -0.02761468  -2.85650051   1.28268084 
C    0.30819314  -2.13232666   2.42044812 
C    2.12316948  -2.14383744   1.00411768 
C    1.02495142  -2.85208360   0.34503929 
C    1.73639916  -1.73783196   2.25223062 
N   -1.06935768  -0.08786977  -0.47712510 
C   -2.48947258  -0.07849944   0.03432865 
C   -2.84659951   1.25093416   0.67645999 
H   -3.88506509   1.21601328   1.01933940 
H   -2.75889536   2.06961431  -0.03653450 
H   -2.25599765   1.43696221   1.54923132 
C   -3.50047177  -0.46206485  -1.03980491 
H   -2.50404164  -0.83379652   0.79047912 
H   -4.47548159  -0.60605721  -0.53761148 
H   -3.66623764   0.31584800  -1.77455491 
H   -3.25379417  -1.38871716  -1.52222904 
C   -0.83532344   0.25253191  -1.70507777 
C    0.47617294   0.19506054  -2.29911432 
H   -1.63448958   0.53089965  -2.34071762 
C    1.64672780  -0.05533594  -1.50723442 
C    2.76379321  -0.14500797  -2.47537890 
S    0.73556281   0.27134496  -3.99263353 
C    2.40650622   0.02585775  -3.79604585 
H    2.16949872   1.19434014  -0.73985343 
H    3.78813241  -0.23664307  -2.17616721 
H    3.06436880  -0.03611363  -4.64465328 
H   -0.85524253  -3.54420319   1.22283532 
H   -0.23888792  -2.04074736   3.34813748 
H    2.32413790  -1.34698762   3.02398432 
O    2.01408200   2.03944950   0.36423332 
O    0.26928854   1.11467823   1.57450484 
C    1.12999972   2.11026200   1.18259915 
C    0.88618470   3.46953293   1.93636139 
H    0.87573127   4.25622914   1.18829694 
H    1.77461557   3.64317670   2.56130155 
H    0.01095479   3.49991540   2.54893471 
H    3.13575811  -2.12212626   0.62169260 
H    1.08520890  -3.44333598  -0.53467343 
*
