! EnGrad PBEh-3c
%output 
xyzfile=True 
end 
%scf 
maxiter 250 
end
%output
Print[P_Hirshfeld] = 1
end
% maxcore
4000
*xyz 1 1
Ir   0.54576317  -0.74549053   0.65524572 
C   -0.03016802  -2.86012711   1.27868660 
C    0.32357536  -2.12426254   2.42455130 
C    2.12484918  -2.14941775   0.98990026 
C    1.02900186  -2.84612290   0.35246908 
C    1.71682431  -1.74215815   2.25416696 
N   -1.06869926  -0.08631370  -0.47991001 
C   -2.48400475  -0.07492495   0.02796378 
C   -2.85008458   1.24971188   0.67310277 
H   -3.88464739   1.21736862   1.01828578 
H   -2.75888510   2.07003464  -0.03802791 
H   -2.25464150   1.43940705   1.55021132 
C   -3.50445641  -0.46100608  -1.03306681 
H   -2.50431916  -0.83547065   0.79382081 
H   -4.47293110  -0.60632419  -0.53955355 
H   -3.66568586   0.31572071  -1.77611906 
H   -3.25215935  -1.39191776  -1.52305030 
C   -0.83079206   0.24855291  -1.69871860 
C    0.48047297   0.19623900  -2.28981436 
H   -1.63831331   0.53285555  -2.34380612 
C    1.64447143  -0.05068771  -1.52318145 
C    2.75626993  -0.14319004  -2.47156191 
S    0.73675054   0.26923163  -3.98904795 
C    2.40728756   0.02476942  -3.79036390 
H    2.16635699   1.18953836  -0.73955228 
H    3.79080185  -0.23600574  -2.17709913 
H    3.06442721  -0.03637196  -4.64590101 
H   -0.85734938  -3.54274892   1.22465848 
H   -0.23730157  -2.04020177   3.34835953 
H    2.33075390  -1.34398413   3.02666728 
O    2.02122760   2.03501602   0.35729868 
O    0.29188613   1.13083284   1.56240198 
C    1.09517682   2.10652954   1.20812540 
C    0.89575788   3.46141001   1.93123678 
H    0.87511171   4.25658599   1.18867111 
H    1.77249616   3.64345964   2.56179708 
H    0.00775380   3.49836855   2.55043578 
H    3.13427686  -2.12323616   0.61963012 
H    1.08272375  -3.44541345  -0.53749379 
*
