! EnGrad PBEh-3c
%output 
xyzfile=True 
end 
%scf 
maxiter 250 
end
%output
Print[P_Hirshfeld] = 1
end
% maxcore
4000
*xyz 1 1
Ir   0.58799149  -0.74367672   0.61983589 
C   -0.02520052  -2.88181347   1.31164267 
C    0.36744652  -2.10785540   2.43272864 
C    2.13495794  -2.22106026   0.97839517 
C    1.01692650  -2.85574143   0.35452939 
C    1.72705844  -1.74008607   2.24347875 
N   -1.07200885  -0.09463220  -0.49764329 
C   -2.47796394  -0.06655689   0.02516356 
C   -2.85273230   1.26931842   0.65867149 
H   -3.89210656   1.22601892   0.98334263 
H   -2.76192285   2.08169273  -0.06302528 
H   -2.23989512   1.48670130   1.53314475 
C   -3.50223123  -0.47178580  -1.02775406 
H   -2.49422295  -0.83034744   0.81352864 
H   -4.45657530  -0.61222691  -0.53781795 
H   -3.65733421   0.29706998  -1.79024471 
H   -3.23696120  -1.41352300  -1.51939893 
C   -0.82513734   0.24966912  -1.71089554 
C    0.50538165   0.17689967  -2.25010198 
H   -1.66020644   0.54455607  -2.34898718 
C    1.65997348   0.05947061  -1.48765632 
C    2.74378865  -0.13533537  -2.44432994 
S    0.72604248   0.26060772  -3.96849176 
C    2.40133213   0.00350952  -3.77414031 
H    2.02827359   1.13751186  -0.59613916 
H    3.79496001  -0.22941456  -2.18232937 
H    3.05659557  -0.03226442  -4.65164361 
H   -0.91932879  -3.49310027   1.23851007 
H   -0.19480900  -2.02005061   3.35344918 
H    2.38192560  -1.31007217   2.99829254 
O    2.01667244   2.02343451   0.30405169 
O    0.33363558   1.14826230   1.53372753 
C    1.10098917   2.06393113   1.21167435 
C    0.90540593   3.41272441   1.92327874 
H    0.86979527   4.24528986   1.20121841 
H    1.75731755   3.63331111   2.57225951 
H   -0.00332461   3.49135617   2.55736097 
H    3.12220352  -2.11783309   0.55971254 
H    1.03206858  -3.43450812  -0.55434854 
*
