! EnGrad PBEh-3c
%output 
xyzfile=True 
end 
%scf 
maxiter 250 
end
%output
Print[P_Hirshfeld] = 1
end
% maxcore
4000
*xyz 1 1
Ir   0.59859505  -0.75528163   0.61519872 
C   -0.02788556  -2.88466454   1.32147693 
C    0.38772770  -2.10173774   2.43793573 
C    2.14095862  -2.24024424   0.96551558 
C    1.01246494  -2.86205577   0.35788673 
C    1.73396507  -1.74162033   2.23517867 
N   -1.06967788  -0.09509011  -0.50353727 
C   -2.46736957  -0.06490678   0.02146593 
C   -2.85195889   1.27556945   0.64905910 
H   -3.89444749   1.23208079   0.96878041 
H   -2.76347260   2.08697266  -0.07575770 
H   -2.23642822   1.50849780   1.52315725 
C   -3.49841772  -0.47682028  -1.02489243 
H   -2.49009595  -0.82407271   0.82031920 
H   -4.45251657  -0.61613936  -0.53694530 
H   -3.65321139   0.28684323  -1.79568345 
H   -3.23011506  -1.42178323  -1.51562070 
C   -0.82573456   0.24555940  -1.70799285 
C    0.50705930   0.18412903  -2.23439351 
H   -1.66399617   0.54968743  -2.35257207 
C    1.66206969   0.08942256  -1.49857074 
C    2.74152589  -0.12321129  -2.43157699 
S    0.72588298   0.24988262  -3.94919435 
C    2.40074837  -0.00606435  -3.75988369 
H    1.97157657   1.11779877  -0.53290841 
H    3.79539478  -0.22501447  -2.18443564 
H    3.04933938  -0.03244575  -4.64736738 
H   -0.94303665  -3.46638829   1.24824274 
H   -0.17446948  -2.00799679   3.35609145 
H    2.40423145  -1.29654198   2.98090793 
O    2.00322905   2.01067777   0.29548922 
O    0.35896022   1.14128582   1.51437222 
C    1.09616327   2.07720433   1.21471204 
C    0.91105098   3.39600786   1.92057486 
H    0.86832687   4.23316023   1.20865250 
H    1.75031011   3.62714077   2.57675395 
H   -0.00174147   3.48110638   2.55404888 
H    3.11582032  -2.12035059   0.53230170 
H    1.00782567  -3.43170918  -0.56295584 
*
