! EnGrad PBEh-3c
%output 
xyzfile=True 
end 
%scf 
maxiter 250 
end
%output
Print[P_Hirshfeld] = 1
end
% maxcore
4000
*xyz 1 1
Ir   0.63534606  -0.78686184   0.60466032 
C   -0.03401925  -2.88323288   1.36733482 
C    0.43611432  -2.10010215   2.44283291 
C    2.15720428  -2.30349286   0.94246822 
C    0.97757033  -2.90782425   0.35682158 
C    1.82214607  -1.74094062   2.19056767 
N   -1.06276415  -0.10902677  -0.50506889 
C   -2.44916611  -0.06212684   0.02657023 
C   -2.84033007   1.30768580   0.61448257 
H   -3.89907822   1.25506726   0.90725497 
H   -2.77001183   2.10630077  -0.12942491 
H   -2.22841982   1.59474812   1.47369205 
C   -3.47274111  -0.50212206  -1.02837502 
H   -2.47012283  -0.79077196   0.84000403 
H   -4.43690550  -0.63232654  -0.52935183 
H   -3.63575336   0.24130653  -1.81370308 
H   -3.20429753  -1.45015774  -1.49578034 
C   -0.83904258   0.24968158  -1.71705141 
C    0.50283203   0.21554281  -2.20876812 
H   -1.66430996   0.56333679  -2.35659783 
C    1.67345292   0.18165935  -1.48123028 
C    2.75839793  -0.07144721  -2.40074354 
S    0.71857336   0.20773589  -3.89658503 
C    2.39175659  -0.03848453  -3.72796725 
H    1.76080413   1.03760156  -0.29373881 
H    3.79903422  -0.20464961  -2.18371557 
H    3.01727471  -0.03674665  -4.62268533 
H   -1.02911569  -3.34858478   1.28994334 
H   -0.09125816  -1.95333484   3.37441034 
H    2.48462817  -1.24960668   2.89635161 
O    1.96812693   1.99829304   0.26873424 
O    0.39647921   1.08912188   1.48267506 
C    1.12465427   2.07441165   1.18607956 
C    0.90303483   3.36999440   1.93440878 
H    0.86409420   4.18821833   1.23478907 
H    1.73018857   3.59803668   2.59761724 
H    0.00575720   3.43809208   2.54085733 
H    3.09046079  -2.13126358   0.41709083 
H    0.90827485  -3.41681805  -0.59145336 
*
