! EnGrad PBEh-3c
%output 
xyzfile=True 
end 
%scf 
maxiter 250 
end
%output
Print[P_Hirshfeld] = 1
end
% maxcore
4000
*xyz 1 1
Sc   1.64257224  -1.22154965  -1.52713483 
C    0.33847718  -0.57283745   0.20541959 
N   -0.47847421  -1.36041542   0.92918103 
C   -0.78917048  -0.77296416   2.12425028 
C   -0.13809286   0.41508414   2.14531019 
N    0.56773574   0.50946690   0.97934181 
C    1.42661216   1.63444322   0.65891664 
H    1.53146304   2.37206965   1.45213363 
H    1.02323495   2.16766308  -0.19752044 
H    2.43313996   1.29899905   0.41644659 
C   -0.98531797  -2.67109240   0.55067454 
H   -0.60015854  -2.95926699  -0.42479631 
H   -2.07126832  -2.64808697   0.49685214 
H   -0.67247612  -3.42154195   1.27389249 
H   -1.42454277  -1.23129628   2.86391651 
H   -0.13711699   1.15632825   2.92639742 
C   -0.25625162   1.64707345  -2.88472981 
H   -1.00080712   1.70644969  -3.69025018 
H    0.33428075   2.55890641  -2.98502231 
H   -0.82845438   1.67766686  -1.95851135 
H    0.08463973  -0.28508818  -3.35477327 
*
