! EnGrad PBEh-3c
%output 
xyzfile=True 
end 
%scf 
maxiter 250 
end
%output
Print[P_Hirshfeld] = 1
end
% maxcore
4000
*xyz 1 1
Sc   1.57423449  -1.15542980  -1.59278687 
C    0.38783680  -0.58622245   0.20453987 
N   -0.48796909  -1.35363147   0.93059891 
C   -0.77627803  -0.76060493   2.12667029 
C   -0.14534112   0.39049912   2.17940282 
N    0.53826518   0.52694467   1.01747356 
C    1.42902925   1.65045617   0.61624887 
H    1.49052888   2.36066923   1.47187074 
H    1.02832396   2.16514488  -0.20910321 
H    2.43547676   1.29786212   0.43803456 
C   -0.97938930  -2.66308854   0.54498774 
H   -0.60749437  -2.94508447  -0.43300299 
H   -2.06876530  -2.65154440   0.50545246 
H   -0.66059580  -3.41947006   1.26846687 
H   -1.41651364  -1.23798809   2.86568240 
H   -0.11916356   1.15431810   2.93176791 
C   -0.35881947   1.57715294  -2.95120469 
H   -0.95156086   1.68101214  -3.69086756 
H    0.43992341   2.48954943  -2.99137145 
H   -0.79416677   1.65167651  -1.95971440 
H    0.04388784  -0.17056716  -3.27435729 
*
