! EnGrad PBEh-3c
%output 
xyzfile=True 
end 
%scf 
maxiter 250 
end
%output
Print[P_Hirshfeld] = 1
end
% maxcore
4000
*xyz 1 1
Sc   1.51112858  -1.09308925  -1.65726124 
C    0.40486102  -0.58227519   0.23882093 
N   -0.47761816  -1.34199334   0.91884395 
C   -0.79164852  -0.79174333   2.13716625 
C   -0.13280979   0.40677456   2.20613173 
N    0.53874579   0.53183837   1.00843123 
C    1.42194745   1.65428187   0.63134849 
H    1.45489640   2.34862703   1.47477300 
H    1.02575121   2.17160408  -0.23669950 
H    2.43992877   1.29636920   0.45637683 
C   -0.97781052  -2.65892212   0.54682096 
H   -0.61333108  -2.93137686  -0.44269784 
H   -2.06511648  -2.65492114   0.51345968 
H   -0.64938343  -3.41583245   1.26048851 
H   -1.40514895  -1.24160971   2.86364703 
H   -0.10528157   1.15105753   2.94231936 
C   -0.32005711   1.52502912  -2.91406164 
H   -0.98534063   1.67042565  -3.77995556 
H    0.50260230   2.38775948  -3.00034212 
H   -0.77355849   1.62742113  -1.96666714 
H   -0.00010126  -0.05626971  -3.20262231 
*
