! EnGrad PBEh-3c
%output 
xyzfile=True 
end 
%scf 
maxiter 250 
end
%output
Print[P_Hirshfeld] = 1
end
% maxcore
4000
*xyz 1 1
Sc   1.43943823  -1.02568158  -1.72431068 
C    0.39849830  -0.56693656   0.25723710 
N   -0.47173349  -1.34527059   0.92709303 
C   -0.77399110  -0.77959185   2.13401041 
C   -0.13113339   0.38867593   2.19028715 
N    0.55376061   0.53102722   1.00628555 
C    1.40919659   1.64933754   0.65117935 
H    1.42980651   2.34789228   1.47278640 
H    1.02794033   2.17125451  -0.25054281 
H    2.43836381   1.30096531   0.47364731 
C   -0.97269464  -2.65557975   0.54334407 
H   -0.61939314  -2.92048725  -0.44972272 
H   -2.06172050  -2.65598745   0.52046356 
H   -0.63833135  -3.41202066   1.25267072 
H   -1.40839022  -1.25766593   2.87449535 
H   -0.09622786   1.16017015   2.96738975 
C   -0.26173125   1.49132907  -2.94218364 
H   -0.97679269   1.65374221  -3.79810699 
H    0.52254160   2.28557105  -3.00337404 
H   -0.77824972   1.61639437  -1.95690777 
H   -0.02574761   0.02745286  -3.14771841 
*
