! EnGrad PBEh-3c
%output 
xyzfile=True 
end 
%scf 
maxiter 250 
end
%output
Print[P_Hirshfeld] = 1
end
% maxcore
4000
*xyz -1 1
Pd  -1.94360318  -1.49957213   0.43424780 
Cl  -3.05053609  -3.30192062  -0.49189492 
Cl  -0.08029049  -4.98408512   0.47996083 
Cl  -3.99319286  -1.15044531   1.73560399 
N   -1.06197809   0.10887661   1.37024810 
C   -1.40256045   0.68167051   2.51083301 
C   -0.85829395   1.90067289   2.93585200 
C    0.09574754   2.51404069   2.14893464 
C   -0.09209258   0.67325258   0.60329767 
C    0.50047641   1.90076963   0.96199674 
H    0.53536926   3.45212535   2.45638070 
H   -2.14902824   0.17233887   3.10012638 
H   -1.18934931   2.34516153   3.86223296 
C    0.29607347  -0.03981575  -0.57519085 
C    1.48489135   2.46055960   0.08819916 
C    1.84290009   1.82425926  -1.05116294 
C    1.28096678   0.55744506  -1.42285529 
H    1.93606141   3.40352277   0.35319185 
H    2.58411845   2.26473009  -1.70113947 
C   -0.37969140  -1.28531683  -0.82913650 
C    1.67377087  -0.12172779  -2.57467007 
C    0.09171497  -1.89348466  -2.01563350 
C    1.09701639  -1.34242670  -2.86698614 
H    2.41076876   0.30933118  -3.23509973 
H    1.42095269  -1.87156625  -3.76832107 
H   -0.68192065  -4.25137819  -0.14182038 
H   -0.36290365  -2.82247904  -2.36761389 
*
