! EnGrad PBEh-3c
%output 
xyzfile=True 
end 
%scf 
maxiter 250 
end
%output
Print[P_Hirshfeld] = 1
end
% maxcore
4000
*xyz -1 1
Pd  -1.95891354  -1.49784734   0.44503837 
Cl  -3.04906848  -3.30187769  -0.49571016 
Cl  -0.03458849  -5.03832301   0.52888717 
Cl  -3.98564314  -1.14800138   1.72963216 
N   -1.05430965   0.11280398   1.36866480 
C   -1.40347717   0.67970483   2.50704612 
C   -0.85664570   1.89898344   2.93606753 
C    0.09499736   2.51367700   2.15078416 
C   -0.09174966   0.67186597   0.60165038 
C    0.49952133   1.89761152   0.96130932 
H    0.53499147   3.45201469   2.45608844 
H   -2.14983934   0.17032941   3.10068564 
H   -1.18858644   2.34344302   3.86196155 
C    0.28996096  -0.03801743  -0.56888939 
C    1.48441139   2.46163560   0.08892031 
C    1.84187437   1.82266187  -1.05148583 
C    1.27544368   0.55107158  -1.41852628 
H    1.93565293   3.40435803   0.35306645 
H    2.58415165   2.26571337  -1.70227824 
C   -0.35652426  -1.27981623  -0.85232825 
C    1.67284919  -0.12301684  -2.57655056 
C    0.08621646  -1.89649308  -2.01347939 
C    1.09165041  -1.34326814  -2.85827297 
H    2.41198135   0.31068330  -3.23634845 
H    1.41908620  -1.87064502  -3.76535920 
H   -0.72703654  -4.19513595  -0.18583443 
H   -0.36045398  -2.81956984  -2.36555682 
*
