! EnGrad PBEh-3c
%output 
xyzfile=True 
end 
%scf 
maxiter 250 
end
%output
Print[P_Hirshfeld] = 1
end
% maxcore
4000
*xyz -1 1
Pd  -1.95720518  -1.49161212   0.43262402 
Cl  -3.03311595  -3.30113667  -0.50192733 
Cl  -0.03825094  -5.03591966   0.54389370 
Cl  -3.97953911  -1.13377452   1.72159572 
N   -1.04986556   0.10988903   1.36544710 
C   -1.40067164   0.67527910   2.50802524 
C   -0.85144747   1.89243433   2.93332757 
C    0.09110254   2.50816996   2.15293841 
C   -0.09062529   0.67193750   0.60428744 
C    0.50174593   1.89676714   0.95876186 
H    0.53520328   3.45131538   2.45438826 
H   -2.15119421   0.16565080   3.09888388 
H   -1.18682339   2.33800345   3.86325544 
C    0.29061003  -0.03981920  -0.57183600 
C    1.48128075   2.45907874   0.08730613 
C    1.83774903   1.81996459  -1.05101048 
C    1.27093226   0.54980244  -1.41044235 
H    1.93343692   3.40681469   0.35319745 
H    2.58183849   2.26748600  -1.70503358 
C   -0.35934457  -1.27514097  -0.85321256 
C    1.66992243  -0.12753322  -2.57724741 
C    0.08521299  -1.89803171  -2.01497303 
C    1.08707868  -1.34311854  -2.85177132 
H    2.41279759   0.31438833  -3.23742743 
H    1.41648935  -1.86813408  -3.76034923 
H   -0.73346277  -4.18635289  -0.18153430 
H   -0.35572133  -2.82078848  -2.36270206 
*
