! EnGrad PBEh-3c
%output 
xyzfile=True 
end 
%scf 
maxiter 250 
end
%output
Print[P_Hirshfeld] = 1
end
% maxcore
4000
*xyz -1 1
Pd  -1.96515749  -1.43910678   0.38622467 
Cl  -2.92509717  -3.30436520  -0.56710003 
Cl  -0.08035923  -4.98619410   0.60874596 
Cl  -3.92352444  -1.04881979   1.66159731 
N   -1.03859210   0.09361123   1.36048746 
C   -1.38801285   0.64445843   2.50583042 
C   -0.83501042   1.85023231   2.93998857 
C    0.09504294   2.48730874   2.15282090 
C   -0.07777370   0.66746385   0.60567531 
C    0.50725438   1.89201478   0.96066374 
H    0.52659612   3.43705374   2.44402086 
H   -2.15431271   0.13517331   3.07658981 
H   -1.17156783   2.29356512   3.86485290 
C    0.29282535  -0.03262174  -0.57958337 
C    1.47206184   2.46058029   0.07982234 
C    1.82619575   1.81419007  -1.05224852 
C    1.27318882   0.54761874  -1.40440551 
H    1.91395680   3.41278379   0.34739196 
H    2.55224126   2.26447172  -1.71473958 
C   -0.37282511  -1.25520725  -0.86556747 
C    1.65611482  -0.12754369  -2.56376366 
C    0.08095307  -1.89833376  -2.02022714 
C    1.07786214  -1.34167568  -2.83553511 
H    2.39235553   0.31720240  -3.22428269 
H    1.38987995  -1.86195522  -3.72313854 
H   -0.75577147  -4.16535337  -0.11368558 
H   -0.34399751  -2.84447126  -2.33924994 
*
