! EnGrad PBEh-3c
%output 
xyzfile=True 
end 
%scf 
maxiter 250 
end
%output
Print[P_Hirshfeld] = 1
end
% maxcore
4000
*xyz -1 1
Pd  -1.95768661  -1.42343081   0.35858848 
Cl  -2.86848882  -3.30482931  -0.61992340 
Cl  -0.09213013  -4.96349195   0.65960262 
Cl  -3.90725898  -1.00259106   1.62875948 
N   -1.03597372   0.09407964   1.35251602 
C   -1.38033645   0.62824981   2.50390414 
C   -0.82512410   1.83192629   2.94645579 
C    0.10103546   2.47446250   2.15847936 
C   -0.07295411   0.66288589   0.60154784 
C    0.50959202   1.88332449   0.96276032 
H    0.51813009   3.42951516   2.44456329 
H   -2.15392638   0.11511534   3.06214007 
H   -1.16239970   2.26357148   3.87385223 
C    0.29171939  -0.02885158  -0.58093020 
C    1.46725336   2.46505328   0.08250981 
C    1.82520801   1.82263965  -1.05146521 
C    1.27215239   0.55470118  -1.40354927 
H    1.90220238   3.41825432   0.33952949 
H    2.54125296   2.26589859  -1.72708995 
C   -0.37641287  -1.24785569  -0.86964136 
C    1.65311390  -0.12532051  -2.56026798 
C    0.07094868  -1.90126688  -2.00857428 
C    1.07192143  -1.34195751  -2.82991046 
H    2.38245804   0.31559372  -3.22137597 
H    1.38326912  -1.87551799  -3.72569718 
H   -0.78146817  -4.14301710  -0.07064958 
H   -0.34297094  -2.85342695  -2.32044508 
*
