21
Coordinates from ORCA-job reaction-0-cineb10_optts_Compound_1 E -737.089990996541
  C      -1.447370      0.177890     -0.553440
  C      -2.065540     -0.870510     -1.232710
  C      -1.667590     -2.182950     -0.974230
  C      -0.801070     -2.439110      0.090910
  C      -0.384450     -0.075740      0.311490
  C      -0.200970     -1.379450      0.755120
  H      -1.760200      1.187180     -0.774860
  H      -2.771650     -0.658060     -2.041690
  H      -1.988020     -2.994090     -1.633610
  H       0.485870     -1.581440      1.556800
  H      -0.496870     -3.462820      0.318170
  Pd      1.236970      0.963410     -0.039940
  O       3.122520      1.257360     -1.180740
  O       2.513240     -0.638420     -0.286290
  O       0.301210      2.779260      0.293560
  C      -0.157450      2.930400      1.381180
  O      -0.049830      2.119600      2.383960
  H      -0.717970      1.422180      2.407140
  C       3.321160      0.045490     -0.980270
  H       4.201690     -0.464540     -1.412110
  H      -0.698880      3.823420      1.582770
21
Coordinates from ORCA-job reaction-0-cineb10_optts_Compound_1 E -737.097939211197
  C      -1.404192      0.175981     -0.589938
  C      -2.101026     -0.860681     -1.205149
  C      -1.763124     -2.180374     -0.921889
  C      -0.851165     -2.446654      0.097190
  C      -0.325064     -0.094819      0.251964
  C      -0.167557     -1.402516      0.702048
  H      -1.681610      1.191389     -0.836684
  H      -2.835774     -0.634708     -1.978209
  H      -2.167330     -2.991653     -1.524975
  H       0.552590     -1.625683      1.471530
  H      -0.588954     -3.473592      0.344673
  Pd      1.291074      0.957285     -0.059536
  O       3.204028      1.317145     -1.135544
  O       2.598651     -0.612780     -0.312514
  O       0.304508      2.737817      0.288628
  C      -0.199684      2.892673      1.362062
  O      -0.082581      2.092125      2.383213
  H      -0.764835      1.410834      2.440752
  C       3.415004      0.103231     -0.962485
  H       4.314559     -0.380143     -1.380859
  H      -0.772720      3.784183      1.536931
21
Coordinates from ORCA-job reaction-0-cineb10_optts_Compound_1 E -737.104379481821
  C      -1.362497      0.177045     -0.658585
  C      -2.121935     -0.858308     -1.196322
  C      -1.840565     -2.174308     -0.852549
  C      -0.894812     -2.433508      0.134557
  C      -0.280241     -0.095919      0.178166
  C      -0.144351     -1.394812      0.664095
  H      -1.600356      1.189883     -0.956352
  H      -2.876905     -0.637221     -1.947410
  H      -2.320722     -2.992653     -1.381347
  H       0.598653     -1.615568      1.415272
  H      -0.675304     -3.456064      0.428354
  Pd      1.331065      0.969839     -0.089464
  O       3.280728      1.379097     -1.079444
  O       2.642797     -0.585918     -0.368963
  O       0.321520      2.743422      0.306720
  C      -0.216516      2.848202      1.374202
  O      -0.118436      1.986093      2.353918
  H      -0.825686      1.327832      2.375331
  C       3.483749      0.157781     -0.954199
  H       4.396613     -0.307502     -1.361252
  H      -0.801999      3.731647      1.586482
21
Coordinates from ORCA-job reaction-0-cineb10_optts_Compound_1 E -737.110351077627
  C      -1.322554      0.168545     -0.704251
  C      -2.146498     -0.848092     -1.177625
  C      -1.915325     -2.162265     -0.797809
  C      -0.928184     -2.437154      0.141658
  C      -0.232489     -0.123006      0.115819
  C      -0.108762     -1.420483      0.609660
  H      -1.522814      1.181811     -1.030753
  H      -2.926928     -0.615956     -1.896054
  H      -2.473120     -2.970777     -1.258098
  H       0.666818     -1.658454      1.323339
  H      -0.745757     -3.458991      0.458011
  Pd      1.368652      0.962243     -0.107554
  O       3.341784      1.430749     -1.019780
  O       2.696115     -0.566541     -0.411785
  O       0.321575      2.696144      0.315479
  C      -0.250766      2.816142      1.366536
  O      -0.162230      1.973774      2.369345
  H      -0.865376      1.312887      2.404675
  C       3.550652      0.206666     -0.937172
  H       4.479603     -0.233772     -1.332888
  H      -0.849598      3.705590      1.540459
21
Coordinates from ORCA-job reaction-0-cineb10_optts_Compound_1 E -737.114491565166
  C      -1.289816      0.166090     -0.770978
  C      -2.164771     -0.840157     -1.169901
  C      -1.978149     -2.141497     -0.728464
  C      -0.963536     -2.414158      0.180670
  C      -0.195841     -0.125388      0.043152
  C      -0.090069     -1.410947      0.573112
  H      -1.458902      1.168930     -1.145303
  H      -2.961152     -0.611516     -1.870402
  H      -2.596674     -2.943831     -1.114142
  H       0.704077     -1.648216      1.267953
  H      -0.813204     -3.425339      0.542601
  Pd      1.402763      0.970078     -0.137357
  O       3.408114      1.480569     -0.956226
  O       2.734710     -0.542926     -0.472435
  O       0.330193      2.694751      0.331120
  C      -0.269219      2.762271      1.372538
  O      -0.187517      1.866924      2.333360
  H      -0.916881      1.233255      2.347574
  C       3.610611      0.252775     -0.926560
  H       4.551487     -0.171776     -1.310365
  H      -0.881424      3.639169      1.581264
21
Coordinates from ORCA-job reaction-0-cineb10_optts_Compound_1 E -737.118441430728
  C      -1.256123      0.165790     -0.818015
  C      -2.190004     -0.815465     -1.137609
  C      -2.042679     -2.104539     -0.649991
  C      -0.989872     -2.391857      0.208601
  C      -0.147037     -0.137842     -0.029178
  C      -0.055608     -1.415660      0.522721
  H      -1.398015      1.160278     -1.225710
  H      -3.011058     -0.576816     -1.804142
  H      -2.725373     -2.887372     -0.957570
  H       0.765829     -1.667381      1.180477
  H      -0.866970     -3.394515      0.601810
  Pd      1.447989      0.967960     -0.164158
  O       3.483769      1.524482     -0.891776
  O       2.794191     -0.519537     -0.529359
  O       0.343998      2.657075      0.345258
  C      -0.304946      2.697894      1.360481
  O      -0.262018      1.779940      2.304505
  H      -1.002145      1.159315      2.294916
  C       3.684506      0.296758     -0.913468
  H       4.637276     -0.110282     -1.285635
  H      -0.930912      3.570834      1.559052
21
Coordinates from ORCA-job reaction-0-cineb10_optts_Compound_1 E -737.121334236765
  C      -1.224415      0.159102     -0.873711
  C      -2.207535     -0.794186     -1.122246
  C      -2.100963     -2.065397     -0.580890
  C      -1.024564     -2.367608      0.242001
  C      -0.110815     -0.154945     -0.095626
  C      -0.038915     -1.421102      0.484962
  H      -1.333072      1.139201     -1.324039
  H      -3.041920     -0.546580     -1.768008
  H      -2.838162     -2.822764     -0.816338
  H       0.799969     -1.686442      1.115507
  H      -0.931805     -3.357969      0.671622
  Pd      1.473739      0.971633     -0.187834
  O       3.534727      1.570624     -0.827895
  O       2.838301     -0.487411     -0.566343
  O       0.320635      2.634401      0.334832
  C      -0.339452      2.637061      1.343899
  O      -0.263954      1.703707      2.272363
  H      -0.985374      1.061003      2.249196
  C       3.738147      0.345630     -0.891375
  H       4.701950     -0.047294     -1.249293
  H      -0.991721      3.488394      1.560425
21
Coordinates from ORCA-job reaction-0-cineb10_optts_Compound_1 E -737.123435288704
  C      -1.212320      0.158580     -0.913211
  C      -2.228157     -0.777342     -1.091596
  C      -2.133809     -2.033451     -0.514606
  C      -1.025005     -2.345512      0.260206
  C      -0.079432     -0.160728     -0.166511
  C      -0.006377     -1.418664      0.432728
  H      -1.312896      1.127554     -1.389581
  H      -3.084719     -0.525658     -1.705290
  H      -2.908177     -2.771437     -0.681576
  H       0.857622     -1.690535      1.025807
  H      -0.938598     -3.325764      0.713619
  Pd      1.502696      0.972096     -0.207359
  O       3.593623      1.586724     -0.746193
  O       2.862648     -0.473035     -0.628859
  O       0.346179      2.607487      0.361199
  C      -0.357839      2.592331      1.341304
  O      -0.342821      1.628957      2.242879
  H      -1.087098      1.014964      2.187222
  C       3.783386      0.364590     -0.875008
  H       4.753287     -0.021242     -1.223642
  H      -1.007391      3.449146      1.549677
21
Coordinates from ORCA-job reaction-0-cineb10_optts_Compound_1 E -737.124759170013
  C      -1.198035      0.153272     -0.940942
  C      -2.241177     -0.758829     -1.076482
  C      -2.165204     -2.004768     -0.474810
  C      -1.041977     -2.333216      0.272117
  C      -0.059055     -0.177796     -0.208780
  C       0.004188     -1.429839      0.403099
  H      -1.281609      1.113269     -1.438002
  H      -3.106306     -0.496494     -1.673214
  H      -2.966426     -2.721839     -0.599945
  H       0.879139     -1.717425      0.972563
  H      -0.968329     -3.307508      0.739928
  Pd      1.512727      0.969707     -0.224497
  O       3.614336      1.608334     -0.682649
  O       2.881965     -0.454759     -0.660902
  O       0.319353      2.579889      0.339083
  C      -0.384329      2.556582      1.317364
  O      -0.326680      1.612762      2.237638
  H      -1.038487      0.960837      2.190021
  C       3.809704      0.392153     -0.852063
  H       4.789006      0.017704     -1.186227
  H      -1.058004      3.397024      1.517909
21
Coordinates from ORCA-job reaction-0-cineb10_optts_Compound_1 E -737.125701129143
  C      -1.196916      0.153597     -0.975992
  C      -2.258432     -0.743369     -1.061106
  C      -2.189891     -1.974412     -0.428484
  C      -1.050659     -2.307806      0.291374
  C      -0.046073     -0.179839     -0.263910
  C       0.014669     -1.421075      0.370296
  H      -1.274777      1.101616     -1.496640
  H      -3.135124     -0.479700     -1.639732
  H      -3.010362     -2.675905     -0.506896
  H       0.903128     -1.712470      0.916841
  H      -0.981241     -3.271342      0.781330
  Pd      1.521450      0.971372     -0.253289
  O       3.634266      1.619013     -0.612835
  O       2.901230     -0.440570     -0.703490
  O       0.310629      2.562248      0.325299
  C      -0.394553      2.512192      1.304598
  O      -0.319454      1.555523      2.211639
  H      -1.026857      0.898775      2.157319
  C       3.835763      0.409871     -0.823472
  H       4.827041      0.047115     -1.134139
  H      -1.089037      3.334227      1.512498
21
Coordinates from ORCA-job reaction-0-cineb10_optts_Compound_1 E -737.126391185573
  C      -1.184886      0.153711     -0.989262
  C      -2.268915     -0.717802     -1.036116
  C      -2.212656     -1.941937     -0.388844
  C      -1.061448     -2.294547      0.302366
  C      -0.025216     -0.194632     -0.298192
  C       0.025548     -1.431157      0.345698
  H      -1.252691      1.096359     -1.520843
  H      -3.154925     -0.438824     -1.592816
  H      -3.053486     -2.621832     -0.431872
  H       0.921483     -1.739242      0.870901
  H      -1.001740     -3.253975      0.801234
  Pd      1.535435      0.967115     -0.271900
  O       3.651743      1.632082     -0.557558
  O       2.926976     -0.423988     -0.740737
  O       0.296535      2.534086      0.307529
  C      -0.419792      2.470944      1.274557
  O      -0.322833      1.527913      2.193511
  H      -1.007142      0.847026      2.141695
  C       3.862757      0.432817     -0.804531
  H       4.863547      0.082999     -1.098944
  H      -1.143493      3.271943      1.465336
21
Coordinates from ORCA-job reaction-0-cineb10_optts_Compound_1 E -737.126600505735
  C      -1.192858      0.149356     -1.009941
  C      -2.286232     -0.711365     -1.028621
  C      -2.232913     -1.927926     -0.366587
  C      -1.072721     -2.286781      0.305956
  C      -0.025226     -0.203945     -0.334705
  C       0.025039     -1.435673      0.317868
  H      -1.259064      1.085105     -1.553656
  H      -3.178351     -0.428917     -1.573620
  H      -3.083185     -2.596952     -0.383769
  H       0.929201     -1.749832      0.824978
  H      -1.014539     -3.241042      0.814722
  Pd      1.530440      0.962991     -0.297985
  O       3.645640      1.644275     -0.512538
  O       2.947620     -0.413194     -0.753495
  O       0.273276      2.519875      0.269815
  C      -0.418551      2.451608      1.260976
  O      -0.278042      1.522383      2.189199
  H      -0.940878      0.819146      2.151058
  C       3.875360      0.450238     -0.770824
  H       4.888515      0.112995     -1.035702
  H      -1.157731      3.236717      1.458082
21
Coordinates from ORCA-job reaction-0-cineb10_optts_Compound_1 E -737.126798739059
  C      -1.190532      0.156646     -1.006144
  C      -2.289452     -0.696771     -1.012807
  C      -2.236823     -1.913163     -0.350109
  C      -1.071807     -2.278771      0.310516
  C      -0.017463     -0.202848     -0.343142
  C       0.031145     -1.434055      0.310908
  H      -1.256809      1.093451     -1.548214
  H      -3.186121     -0.407907     -1.546893
  H      -3.092137     -2.575992     -0.356689
  H       0.937933     -1.750903      0.812210
  H      -1.015016     -3.232466      0.820449
  Pd      1.539685      0.965478     -0.303543
  O       3.665004      1.641895     -0.488580
  O       2.951261     -0.404877     -0.777241
  O       0.271912      2.516243      0.268144
  C      -0.433332      2.431353      1.242202
  O      -0.283274      1.504559      2.171453
  H      -0.937280      0.792965      2.130521
  C       3.887823      0.452265     -0.766251
  H       4.902250      0.110724     -1.020732
  H      -1.202167      3.191233      1.425151
21
Coordinates from ORCA-job reaction-0-cineb10_optts_Compound_1 E -737.126780086477
  C      -1.184616      0.169191     -0.998081
  C      -2.287505     -0.679053     -0.997653
  C      -2.235748     -1.895549     -0.335430
  C      -1.067947     -2.266308      0.317261
  C      -0.009519     -0.194476     -0.341151
  C       0.038531     -1.426085      0.311920
  H      -1.249991      1.104883     -1.541925
  H      -3.185849     -0.386092     -1.526638
  H      -3.093612     -2.554923     -0.337219
  H       0.946502     -1.748184      0.807232
  H      -1.011324     -3.220926      0.825420
  Pd      1.548318      0.971303     -0.306954
  O       3.679292      1.637897     -0.497172
  O       2.959991     -0.403018     -0.779511
  O       0.282789      2.519406      0.277385
  C      -0.455776      2.407595      1.230699
  O      -0.309944      1.484754      2.163686
  H      -0.940449      0.753973      2.102008
  C       3.896961      0.446815     -0.770804
  H       4.909717      0.096437     -1.020100
  H      -1.255019      3.141418      1.388237
21
Coordinates from ORCA-job reaction-0-cineb10_optts_Compound_1 E -737.126825651110
  C      -1.187183      0.163852     -1.008746
  C      -2.287932     -0.686973     -1.009664
  C      -2.236040     -1.900892     -0.342313
  C      -1.069961     -2.266318      0.316564
  C      -0.014156     -0.194134     -0.345240
  C       0.034742     -1.423446      0.312111
  H      -1.251264      1.097105     -1.556789
  H      -3.184616     -0.398221     -1.543720
  H      -3.092179     -2.562485     -0.345806
  H       0.942140     -1.741739      0.811211
  H      -1.012987     -3.219242      0.827798
  Pd      1.540333      0.977341     -0.307761
  O       3.677128      1.635928     -0.483043
  O       2.937318     -0.398523     -0.794853
  O       0.266764      2.523420      0.272932
  C      -0.450371      2.415739      1.237564
  O      -0.276198      1.506131      2.179059
  H      -0.888178      0.758523      2.123448
  C       3.885791      0.445809     -0.767200
  H       4.898824      0.087002     -1.002604
  H      -1.257176      3.140181      1.398263
21
Coordinates from ORCA-job reaction-0-cineb10_optts_Compound_1 E -737.126778582367
  C      -1.195199      0.161326     -1.013543
  C      -2.293938     -0.692063     -1.012621
  C      -2.238544     -1.906016     -0.345854
  C      -1.070912     -2.269489      0.310600
  C      -0.019913     -0.195538     -0.353016
  C       0.032458     -1.424688      0.304486
  H      -1.263277      1.095702     -1.559202
  H      -3.192423     -0.405416     -1.544741
  H      -3.093352     -2.569351     -0.347474
  H       0.942140     -1.743677      0.798756
  H      -1.010917     -3.222610      0.821205
  Pd      1.533187      0.974209     -0.316893
  O       3.668839      1.638148     -0.484270
  O       2.942684     -0.398460     -0.796276
  O       0.253943      2.517249      0.254485
  C      -0.445405      2.420265      1.237312
  O      -0.255808      1.519420      2.184918
  H      -0.867715      0.770877      2.151080
  C       3.885856      0.446847     -0.757871
  H       4.904127      0.088237     -0.970289
  H      -1.241032      3.154089      1.410418
21
Coordinates from ORCA-job reaction-0-cineb10_optts_Compound_1 E -737.126797305882
  C      -1.198646      0.158825     -1.006204
  C      -2.292423     -0.701415     -1.012671
  C      -2.230339     -1.919641     -0.354441
  C      -1.061236     -2.280390      0.301808
  C      -0.022993     -0.195109     -0.345915
  C       0.035984     -1.428583      0.303012
  H      -1.270881      1.095645     -1.547207
  H      -3.191876     -0.416995     -1.544384
  H      -3.080909     -2.588447     -0.362109
  H       0.946867     -1.743468      0.797912
  H      -0.996079     -3.236380      0.806402
  Pd      1.532231      0.975056     -0.309210
  O       3.669062      1.631676     -0.489494
  O       2.925862     -0.401256     -0.805465
  O       0.266219      2.524515      0.268804
  C      -0.434800      2.442881      1.246136
  O      -0.270885      1.529264      2.185922
  H      -0.910775      0.804326      2.151546
  C       3.877676      0.439476     -0.764932
  H       4.894759      0.073427     -0.970021
  H      -1.212021      3.195652      1.421722
21
Coordinates from ORCA-job reaction-0-cineb10_optts_Compound_1 E -737.126842999990
  C      -1.195989      0.160189     -1.004733
  C      -2.294815     -0.693209     -1.004368
  C      -2.236785     -1.910312     -0.343905
  C      -1.067195     -2.276097      0.307789
  C      -0.019008     -0.198400     -0.348091
  C       0.035312     -1.430513      0.303708
  H      -1.265529      1.096272     -1.547295
  H      -3.194888     -0.404479     -1.532745
  H      -3.091066     -2.574316     -0.347141
  H       0.945303     -1.750657      0.796718
  H      -1.005311     -3.231705      0.813390
  Pd      1.535714      0.969552     -0.316746
  O       3.662848      1.640980     -0.496782
  O       2.947217     -0.399216     -0.809980
  O       0.269527      2.520309      0.261360
  C      -0.437690      2.427454      1.238003
  O      -0.277831      1.505854      2.170580
  H      -0.920604      0.784237      2.129171
  C       3.887263      0.448931     -0.763260
  H       4.910330      0.092474     -0.955146
  H      -1.212002      3.181712      1.420684
21
Coordinates from ORCA-job reaction-0-cineb10_optts_Compound_1 E -737.126840059558
  C      -1.197920      0.160146     -1.002376
  C      -2.294594     -0.696321     -1.004564
  C      -2.233949     -1.915044     -0.347180
  C      -1.063256     -2.280109      0.303450
  C      -0.020131     -0.197978     -0.347438
  C       0.037176     -1.432159      0.300188
  H      -1.269734      1.097520     -1.542497
  H      -3.195256     -0.408445     -1.532369
  H      -3.086881     -2.580834     -0.351549
  H       0.948631     -1.750535      0.791667
  H      -0.999314     -3.236561      0.807296
  Pd      1.534919      0.971387     -0.312019
  O       3.666728      1.637317     -0.493547
  O       2.937695     -0.399642     -0.806577
  O       0.269778      2.522433      0.263820
  C      -0.435790      2.436237      1.240087
  O      -0.279594      1.516167      2.174756
  H      -0.922208      0.794334      2.132566
  C       3.883379      0.445052     -0.763449
  H       4.904238      0.083704     -0.957832
  H      -1.209119      3.192391      1.418774
21
Coordinates from ORCA-job reaction-0-cineb10_optts_Compound_1 E -737.126780286769
  C      -1.194010      0.163407     -0.998392
  C      -2.293029     -0.689338     -1.003218
  C      -2.235813     -1.909594     -0.348470
  C      -1.066357     -2.279584      0.300800
  C      -0.016880     -0.199600     -0.343888
  C       0.037539     -1.435204      0.301149
  H      -1.263126      1.102139     -1.536243
  H      -3.193036     -0.397241     -1.529947
  H      -3.091255     -2.572156     -0.353353
  H       0.947249     -1.759224      0.792077
  H      -1.005983     -3.237321      0.802512
  Pd      1.536390      0.969731     -0.306663
  O       3.668125      1.637048     -0.489685
  O       2.947231     -0.403817     -0.792536
  O       0.254697      2.514697      0.251367
  C      -0.448410      2.429200      1.230000
  O      -0.267786      1.530919      2.182177
  H      -0.893298      0.793547      2.154013
  C       3.887236      0.445679     -0.763327
  H       4.906065      0.087536     -0.973907
  H      -1.240747      3.168238      1.396745
21
Coordinates from ORCA-job reaction-0-cineb10_optts_Compound_1 E -737.126846501284
  C      -1.199592      0.158101     -1.002455
  C      -2.293854     -0.701339     -1.010526
  C      -2.232354     -1.921135     -0.354938
  C      -1.063212     -2.283843      0.299933
  C      -0.023531     -0.197455     -0.343244
  C       0.034537     -1.432555      0.302594
  H      -1.271215      1.095383     -1.542775
  H      -3.193039     -0.415203     -1.541788
  H      -3.083270     -2.589477     -0.364068
  H       0.945122     -1.749684      0.796539
  H      -0.998200     -3.241047      0.802229
  Pd      1.533967      0.970832     -0.303965
  O       3.664969      1.631331     -0.478545
  O       2.933446     -0.403559     -0.796963
  O       0.273813      2.527507      0.264503
  C      -0.431931      2.444767      1.242506
  O      -0.270454      1.532695      2.184155
  H      -0.913974      0.811048      2.152557
  C       3.879342      0.440969     -0.761111
  H       4.895439      0.085549     -0.988212
  H      -1.211208      3.196175      1.414781
21
Coordinates from ORCA-job reaction-0-cineb10_optts_Compound_1 E -737.126907712586
  C      -1.191604      0.160516     -0.998120
  C      -2.289225     -0.694630     -1.006304
  C      -2.232954     -1.914094     -0.349886
  C      -1.065710     -2.280979      0.305836
  C      -0.017129     -0.199282     -0.337866
  C       0.035678     -1.434095      0.309012
  H      -1.259709      1.098170     -1.538212
  H      -3.187097     -0.405212     -1.538044
  H      -3.086613     -2.578933     -0.358960
  H       0.944319     -1.754214      0.804586
  H      -1.005218     -3.238100      0.808823
  Pd      1.539586      0.968091     -0.295989
  O       3.671246      1.633003     -0.478608
  O       2.940163     -0.401057     -0.803193
  O       0.273727      2.522942      0.268577
  C      -0.441465      2.436414      1.238360
  O      -0.289150      1.521061      2.178375
  H      -0.926692      0.794929      2.131960
  C       3.884492      0.445071     -0.769792
  H       4.898958      0.090689     -1.005907
  H      -1.220803      3.188769      1.406564
21
Coordinates from ORCA-job reaction-0-cineb10_optts_Compound_1 E -737.126938192888
  C      -1.190916      0.160689     -0.994488
  C      -2.289907     -0.692774     -1.001146
  C      -2.233734     -1.913434     -0.346911
  C      -1.065133     -2.283216      0.304796
  C      -0.015285     -0.201646     -0.337533
  C       0.037406     -1.437864      0.306656
  H      -1.259204      1.099182     -1.533123
  H      -3.188816     -0.401082     -1.529903
  H      -3.088476     -2.576895     -0.354481
  H       0.946678     -1.759881      0.799813
  H      -1.004639     -3.241230      0.806070
  Pd      1.542124      0.964997     -0.293191
  O       3.671190      1.633476     -0.474190
  O       2.945079     -0.401652     -0.803175
  O       0.278652      2.521644      0.268961
  C      -0.441575      2.437008      1.235437
  O      -0.299652      1.518178      2.173651
  H      -0.941262      0.796009      2.121717
  C       3.887101      0.446940     -0.769595
  H       4.901888      0.096555     -1.010164
  H      -1.216719      3.194058      1.402009
21
Coordinates from ORCA-job reaction-0-cineb10_optts_Compound_1 E -737.126937384002
  C      -1.190634      0.160604     -0.995161
  C      -2.288922     -0.693795     -1.002812
  C      -2.232554     -1.914125     -0.347996
  C      -1.064498     -2.282647      0.305411
  C      -0.015514     -0.200624     -0.336763
  C       0.037358     -1.436432      0.308201
  H      -1.258949      1.098825     -1.534273
  H      -3.187402     -0.403135     -1.532857
  H      -3.086691     -2.578356     -0.356456
  H       0.946297     -1.757524      0.802567
  H      -1.003863     -3.240380      0.807207
  Pd      1.541761      0.966129     -0.292822
  O       3.672076      1.632381     -0.475594
  O       2.942671     -0.401914     -0.803238
  O       0.279363      2.522989      0.271797
  C      -0.441285      2.437949      1.237665
  O      -0.300946      1.517566      2.174598
  H      -0.943620      0.796450      2.121346
  C       3.885948      0.445570     -0.771087
  H       4.899848      0.093859     -1.013447
  H      -1.215644      3.195669      1.404924
21
Coordinates from ORCA-job reaction-0-cineb10_optts_Compound_1 E -737.126939566135
  C      -1.189816      0.160363     -0.996986
  C      -2.288981     -0.692899     -1.003268
  C      -2.233835     -1.912284     -0.346571
  C      -1.066058     -2.281078      0.307184
  C      -0.015009     -0.201037     -0.338095
  C       0.036701     -1.435997      0.308578
  H      -1.257306      1.098007     -1.537206
  H      -3.187256     -0.402034     -1.533553
  H      -3.088745     -2.575539     -0.353785
  H       0.945352     -1.757217      0.803401
  H      -1.006408     -3.238100      0.810456
  Pd      1.542270      0.965780     -0.294220
  O       3.671576      1.634049     -0.475976
  O       2.945067     -0.401342     -0.803086
  O       0.278731      2.521467      0.271486
  C      -0.441605      2.434857      1.237509
  O      -0.299916      1.514000      2.173770
  H      -0.941821      0.792211      2.120174
  C       3.887160      0.447377     -0.770967
  H       4.901583      0.096993     -1.013079
  H      -1.216884      3.191483      1.405444
