! EnGrad PBEh-3c
%output 
xyzfile=True 
end 
%scf 
maxiter 250 
end
%output
Print[P_Hirshfeld] = 1
end
% maxcore
4000
*xyz 0 1
Lu   0.22873048   0.36656353  -0.22537691 
C    0.36257217   1.00982720   2.42260798 
C    1.33779225   0.02044342   2.25524219 
C    2.26842054   0.45399067   1.30666034 
C    1.94673593   1.77783620   0.99091222 
C    0.72279930   2.08264563   1.60464135 
H    2.48837281   2.41771362   0.31315206 
H    0.20289103   3.02563779   1.57990565 
H   -0.49035666   1.01416091   3.08146555 
H    1.38309736  -0.93689121   2.75034309 
H    3.13885490  -0.09658700   0.99284519 
C    1.03095662  -0.08533822  -2.59382133 
C   -0.28313959  -0.58098582  -2.57993887 
C    1.00272277  -1.96967207  -1.34952475 
C    1.80978312  -0.90547287  -1.76607579 
H    1.35565543   0.81538797  -3.09131038 
C   -0.27295167  -1.80978714  -1.91461507 
H   -1.11380532  -0.22387333  -3.16567988 
H    2.85927426  -0.79739055  -1.54727740 
H    1.33943871  -2.79082757  -0.73450498 
H   -1.13797704  -2.45213605  -1.83925631 
C   -2.56960078  -1.65989647   1.43496360 
H   -2.49142168  -1.44542331   2.47823384 
H   -2.95845826  -2.60938250   1.08566135 
H   -2.66703391  -0.79046168   0.79715971 
C   -1.91927896   1.78170712  -0.72490768 
H   -0.97459847  -1.72627177   1.09211317 
H   -1.46310315   2.56342010  -1.34054347 
H   -2.49956146   2.29353718   0.04656343 
H   -2.63682073   1.25752715  -1.35963610 
*
