! EnGrad PBEh-3c
%output 
xyzfile=True 
end 
%scf 
maxiter 250 
end
%output
Print[P_Hirshfeld] = 1
end
% maxcore
4000
*xyz 0 1
Lu   0.10990718   0.25689843  -0.14436044 
C    0.39083546   0.87385004   2.41318374 
C    1.36359797  -0.09759328   2.14396614 
C    2.28327866   0.43774200   1.23783883 
C    1.89399248   1.74736217   0.96250612 
C    0.69727380   2.01351952   1.65463180 
H    2.44724425   2.44856325   0.36198882 
H    0.22010426   2.97458884   1.72577341 
H   -0.39803313   0.77993506   3.15062668 
H    1.41850968  -1.07234963   2.59336320 
H    3.23101557  -0.00962228   0.95366727 
C    0.97762140  -0.09223803  -2.52648417 
C   -0.31657934  -0.64264123  -2.50561907 
C    1.03783523  -1.93117728  -1.21416302 
C    1.80415913  -0.86951109  -1.71624599 
H    1.29577122   0.76274744  -3.10134372 
C   -0.25996642  -1.81577137  -1.73491476 
H   -1.13318721  -0.32783284  -3.13312045 
H    2.87734942  -0.75606164  -1.61646786 
H    1.41622689  -2.76669042  -0.64817665 
H   -1.06956960  -2.50998158  -1.55534305 
C   -2.57710072  -1.47394166   1.27445852 
H   -2.20671137  -1.32021774   2.28078564 
H   -2.06672025  -2.35377318   0.90698758 
H   -3.62610933  -1.51059796   1.21402077 
C   -1.69638748   1.77075314  -0.81870983 
H   -2.23422068  -0.61582680   0.70267191 
H   -1.23755897   2.60653443  -1.38982078 
H   -2.28423784   2.26658921  -0.01643601 
H   -2.43035517   1.31861295  -1.51951485 
*
