! EnGrad PBEh-3c
%output 
xyzfile=True 
end 
%scf 
maxiter 250 
end
%output
Print[P_Hirshfeld] = 1
end
% maxcore
4000
*xyz 0 1
Lu   0.17450097   0.39962355  -0.23399227 
C    0.37223324   1.00652893   2.43611183 
C    1.31396640  -0.04805755   2.23899013 
C    2.31759224   0.45715377   1.33720937 
C    1.95377475   1.80129506   0.95331765 
C    0.73366250   2.12809392   1.63266843 
H    2.50243566   2.43565440   0.32577474 
H    0.20437126   3.02348858   1.57967286 
H   -0.46615550   0.99667380   3.11119097 
H    1.36184715  -0.95792547   2.73263602 
H    3.15468680  -0.09431292   0.99723797 
C    1.03681619  -0.04778797  -2.59170180 
C   -0.28531861  -0.60965910  -2.64687028 
C    1.00169996  -1.99639927  -1.30898732 
C    1.84387027  -0.91762872  -1.79316198 
H    1.35518819   0.81320615  -3.10609461 
C   -0.27945593  -1.80015900  -1.87607715 
H   -1.11163945  -0.22302649  -3.16374890 
H    2.87065257  -0.80522494  -1.55804015 
H    1.33091634  -2.79124819  -0.71766751 
H   -1.11604788  -2.47814006  -1.82014576 
C   -2.29721852  -1.66416504   1.34837191 
H   -2.48570765  -1.46901229   2.50998750 
H   -2.89122988  -2.63146415   1.09823365 
H   -2.86921987  -0.86813862   0.86140593 
C   -1.85441358   1.73729367  -0.71433391 
H   -1.29910183  -1.51576764   1.04016058 
H   -1.45831567   2.57049974  -1.34759809 
H   -2.49262648   2.29228088   0.04754254 
H   -2.63121848   1.26160548  -1.37362500 
*
