! EnGrad PBEh-3c
%output 
xyzfile=True 
end 
%scf 
maxiter 250 
end
%output
Print[P_Hirshfeld] = 1
end
% maxcore
4000
*xyz 0 1
Lu   0.12046029   0.42175762  -0.23942728 
C    0.38488914   1.00305170   2.42617749 
C    1.31492584  -0.02833846   2.18872544 
C    2.30965122   0.47812858   1.35897847 
C    1.93889851   1.77189824   0.96267225 
C    0.77047821   2.10651930   1.66581187 
H    2.52803958   2.46667297   0.32333570 
H    0.19162814   3.04862243   1.58300934 
H   -0.44308528   0.97603455   3.13607593 
H    1.34293785  -1.01016623   2.72845622 
H    3.18368407  -0.09493276   0.99738817 
C    1.02511207  -0.06814499  -2.57357615 
C   -0.24718244  -0.64379808  -2.66401069 
C    1.01382418  -1.95258591  -1.31644113 
C    1.82232816  -0.93734774  -1.79895926 
H    1.36217992   0.82768903  -3.13053530 
C   -0.28357004  -1.78086702  -1.84846555 
H   -1.12780380  -0.21775504  -3.17615608 
H    2.89487604  -0.80915784  -1.56884031 
H    1.33232656  -2.81319538  -0.68493392 
H   -1.09722729  -2.49947064  -1.79415850 
C   -2.40444621  -1.68036830   1.40727655 
H   -2.43409831  -1.50554916   2.44580034 
H   -2.74923197  -2.61158340   1.11249540 
H   -3.03960042  -0.95896040   0.92952415 
C   -1.82868394   1.72524245  -0.71365844 
H   -1.39551555  -1.30606601   0.93024879 
H   -1.45383408   2.56391939  -1.34531509 
H   -2.45438311   2.26931266   0.02765203 
H   -2.59823393   1.27224657  -1.37386408 
*
