! EnGrad PBEh-3c
%output 
xyzfile=True 
end 
%scf 
maxiter 250 
end
%output
Print[P_Hirshfeld] = 1
end
% maxcore
4000
*xyz 0 1
Lu   0.09808653   0.42655169  -0.23947912 
C    0.38144295   0.99810010   2.42559288 
C    1.31450040  -0.04064073   2.18488805 
C    2.31996315   0.47402562   1.35315986 
C    1.94431144   1.77443065   0.95560049 
C    0.77103967   2.11482811   1.67722042 
H    2.53138685   2.47095257   0.33032896 
H    0.19414843   3.04863262   1.58737723 
H   -0.43010016   0.96533769   3.14312638 
H    1.33519761  -1.01858409   2.71635334 
H    3.18886797  -0.08845037   1.00103677 
C    1.02789495  -0.06409990  -2.57657210 
C   -0.25269638  -0.64977492  -2.67301646 
C    1.01773451  -1.95623325  -1.30564455 
C    1.83227420  -0.93422384  -1.79510809 
H    1.36172457   0.82378827  -3.13504420 
C   -0.28609149  -1.77682814  -1.83604187 
H   -1.12541378  -0.22088750  -3.17769877 
H    2.89546695  -0.81170361  -1.57635561 
H    1.33045521  -2.81064049  -0.67860554 
H   -1.08756470  -2.50573481  -1.77988030 
C   -2.40404963  -1.64414798   1.39914561 
H   -2.41042674  -1.51958200   2.43680663 
H   -2.68840507  -2.62973285   1.11195528 
H   -3.12718109  -0.99534642   0.95919646 
C   -1.82043833   1.72499007  -0.71773622 
H   -1.47531490  -1.23129823   0.90107913 
H   -1.44995382   2.55975474  -1.34357272 
H   -2.43341541   2.25750566   0.01914825 
H   -2.57982931   1.27635949  -1.37399641 
*
