! EnGrad PBEh-3c
%output 
xyzfile=True 
end 
%scf 
maxiter 250 
end
%output
Print[P_Hirshfeld] = 1
end
% maxcore
4000
*xyz 0 1
Lu   0.04525523   0.42480749  -0.23220612 
C    0.38402850   0.97534159   2.41403956 
C    1.32293988  -0.06834851   2.17653889 
C    2.32427078   0.46107460   1.32916671 
C    1.94990518   1.78341700   0.95052795 
C    0.77629646   2.12572261   1.69490924 
H    2.53489701   2.47709273   0.35429928 
H    0.20609118   3.04355707   1.60856633 
H   -0.39813533   0.92789255   3.16566446 
H    1.31697245  -1.03452278   2.67103166 
H    3.21036985  -0.06899638   1.00852460 
C    1.03010832  -0.06726008  -2.58629935 
C   -0.26215752  -0.65547003  -2.67412173 
C    1.02715509  -1.95873083  -1.27858493 
C    1.83939679  -0.91931801  -1.77781967 
H    1.35762872   0.80588325  -3.14384301 
C   -0.27964518  -1.76958017  -1.80196110 
H   -1.11831101  -0.23623203  -3.18361556 
H    2.90153203  -0.81609188  -1.59862175 
H    1.32795268  -2.79696050  -0.66283940 
H   -1.06186280  -2.52124615  -1.72933183 
C   -2.43343893  -1.56971169   1.32541610 
H   -2.32830796  -1.54738147   2.44330127 
H   -2.47160268  -2.65528277   1.11241709 
H   -3.41454813  -1.09731707   1.04636813 
C   -1.78818561   1.72771741  -0.74017994 
H   -1.71281803  -1.00545632   0.81716126 
H   -1.42803728   2.55387062  -1.34324165 
H   -2.37494312   2.23124899   0.00538092 
H   -2.52738112   1.28366939  -1.38554346 
*
