! EnGrad PBEh-3c
%output 
xyzfile=True 
end 
%scf 
maxiter 250 
end
%output
Print[P_Hirshfeld] = 1
end
% maxcore
4000
*xyz 0 1
Lu   0.04123294   0.39662723  -0.21596320 
C    0.37797503   0.95690648   2.41645004 
C    1.33247855  -0.06999895   2.17357812 
C    2.32329639   0.44816015   1.29881506 
C    1.94838758   1.78408335   0.95679351 
C    0.76754036   2.11401057   1.69053257 
H    2.52664118   2.47255965   0.36731088 
H    0.21560569   3.03378230   1.63074631 
H   -0.37983606   0.90016483   3.16654314 
H    1.31982352  -1.04161566   2.64404786 
H    3.21775827  -0.05226658   1.00939089 
C    1.02805870  -0.07352139  -2.59033754 
C   -0.27568658  -0.65008737  -2.64542217 
C    1.02750489  -1.95536899  -1.26524946 
C    1.84705874  -0.90197949  -1.75948190 
H    1.35015029   0.78944553  -3.14043244 
C   -0.27687879  -1.77928731  -1.78903086 
H   -1.11404150  -0.25350175  -3.18362878 
H    2.89539116  -0.81331791  -1.61138501 
H    1.33555608  -2.78659103  -0.65757189 
H   -1.04896925  -2.51973890  -1.69300008 
C   -2.48072856  -1.52365010   1.34247580 
H   -2.28371992  -1.53792799   2.39445328 
H   -2.34526987  -2.65353691   1.08667562 
H   -3.52797733  -1.18064155   1.09781994 
C   -1.76698511   1.73378556  -0.75638025 
H   -1.85418585  -0.87207106   0.76743465 
H   -1.39831034   2.56611317  -1.35416075 
H   -2.34999127   2.23098834   0.00786689 
H   -2.50619975   1.28333991  -1.41071651 
*
