! EnGrad PBEh-3c
%output 
xyzfile=True 
end 
%scf 
maxiter 250 
end
%output
Print[P_Hirshfeld] = 1
end
% maxcore
4000
*xyz 0 1
Lu   0.05951954   0.32999914  -0.17996406 
C    0.38926019   0.92766471   2.40384397 
C    1.35140842  -0.07409773   2.16810486 
C    2.29434622   0.43984536   1.25180574 
C    1.93846195   1.77354569   0.97304587 
C    0.74264574   2.07104365   1.67593979 
H    2.50492645   2.46229104   0.38383315 
H    0.23069453   3.01505910   1.67458072 
H   -0.36808671   0.84714482   3.17165703 
H    1.33806861  -1.04805949   2.59806499 
H    3.23800137  -0.02886252   1.00032042 
C    1.01820601  -0.09881501  -2.57901894 
C   -0.29302720  -0.63798076  -2.57495573 
C    1.03289287  -1.93874987  -1.24424818 
C    1.82036587  -0.87536591  -1.73245140 
H    1.33469513   0.76654830  -3.13286247 
C   -0.25916582  -1.79046199  -1.77262215 
H   -1.11207465  -0.28678868  -3.18033261 
H    2.89804531  -0.80028268  -1.62708799 
H    1.35667312  -2.76876404  -0.65113713 
H   -1.04199940  -2.51871133  -1.62524523 
C   -2.57107360  -1.49403913   1.31589520 
H   -2.20963069  -1.48716560   2.34584852 
H   -2.14653974  -2.58645162   1.02993418 
H   -3.66989508  -1.33678131   1.18728518 
C   -1.73598214   1.75063895  -0.78877846 
H   -2.09380985  -0.66072758   0.69691702 
H   -1.33490638   2.59300838  -1.37705684 
H   -2.31046858   2.23791901   0.01349150 
H   -2.47107485   1.28426777  -1.46161398 
*
