! EnGrad PBEh-3c
%output 
xyzfile=True 
end 
%scf 
maxiter 250 
end
%output
Print[P_Hirshfeld] = 1
end
% maxcore
4000
*xyz 0 1
Lu   0.04692411   0.37589121  -0.20475954 
C    0.38148720   0.94780585   2.41252677 
C    1.33836992  -0.07127458   2.17187473 
C    2.31428651   0.44557242   1.28418480 
C    1.94529852   1.78080381   0.96185157 
C    0.75979265   2.10063839   1.68599100 
H    2.51988311   2.46936385   0.37245295 
H    0.22030164   3.02795526   1.64438848 
H   -0.37617942   0.88366392   3.16813469 
H    1.32550176  -1.04362111   2.62973705 
H    3.22405834  -0.04498276   1.00656797 
C    1.02499234  -0.08139328  -2.58681496 
C   -0.28108333  -0.64631954  -2.62349157 
C    1.02918174  -1.95019678  -1.25871343 
C    1.83875138  -0.89369680  -1.75106946 
H    1.34534033   0.78231945  -3.13807651 
C   -0.27136615  -1.78276510  -1.78392413 
H   -1.11342937  -0.26386132  -3.18260294 
H    2.89621719  -0.80926108  -1.61627210 
H    1.34212813  -2.78104291  -0.65556926 
H   -1.04680009  -2.51941910  -1.67191339 
C   -2.50884578  -1.51443456   1.33420337 
H   -2.26066184  -1.52212970   2.37932649 
H   -2.28342100  -2.63265860   1.06901653 
H   -3.57214503  -1.22923543   1.12566335 
C   -1.75733635   1.73903068  -0.76646323 
H   -1.92876173  -0.80629666   0.74548813 
H   -1.37857774   2.57448350  -1.36128648 
H   -2.33769100   2.23314530   0.00961738 
H   -2.49526817   1.28362868  -1.42655684 
*
