! EnGrad PBEh-3c
%output 
xyzfile=True 
end 
%scf 
maxiter 250 
end
%output
Print[P_Hirshfeld] = 1
end
% maxcore
4000
*xyz 0 1
C   -1.67200579   0.20145315  -0.30630771 
C   -1.94329315  -0.81396907  -1.24472718 
C   -1.51222905  -2.12009221  -1.03695041 
C   -0.67679188  -2.34175414   0.04952902 
C   -1.01185693  -0.02140726   0.95390428 
C   -0.41032968  -1.31958282   0.98059170 
H   -2.02637557   1.18355257  -0.59216322 
H   -2.56408954  -0.61526395  -2.12210651 
H   -1.83012024  -2.93864759  -1.69401006 
H    0.27301671  -1.59069365   1.77121187 
H   -0.29626151  -3.35411304   0.20260626 
Pd   1.38893974   1.12941373   0.05915158 
O    3.03568100   1.18996242  -1.42312317 
O    2.57037523  -0.47111049  -0.11047844 
O    0.39135851   2.80867351   0.05961522 
C    0.09030646   2.95342528   1.28516041 
O    0.51722846   2.18885340   2.14747292 
H   -1.14655326   0.64764044   1.94204647 
C    3.29524281   0.04227501  -1.01988730 
H    4.13358106  -0.53789571  -1.44380921 
H   -0.60422752   3.76803925   1.53092490 
*
