! EnGrad PBEh-3c
%output 
xyzfile=True 
end 
%scf 
maxiter 250 
end
%output
Print[P_Hirshfeld] = 1
end
% maxcore
4000
*xyz 0 1
C   -1.66391951   0.20741358  -0.30205018 
C   -1.97484343  -0.81644688  -1.21582516 
C   -1.57196999  -2.12785985  -0.99798433 
C   -0.71257124  -2.34298576   0.06567127 
C   -0.98778241  -0.02200975   0.93306014 
C   -0.41124294  -1.31591800   0.97747135 
H   -1.98014447   1.19919243  -0.60389798 
H   -2.59462438  -0.61549496  -2.08531858 
H   -1.91148744  -2.94946511  -1.63670977 
H    0.29514032  -1.57883712   1.75227998 
H   -0.33577127  -3.34794697   0.22480779 
Pd   1.37891842   1.10175550   0.04201398 
O    3.07978929   1.24052854  -1.37119072 
O    2.56722116  -0.47656873  -0.14538159 
O    0.39371014   2.78220136   0.06806471 
C    0.08400792   2.94597319   1.30190207 
O    0.49017049   2.19197442   2.19487372 
H   -1.01924171   0.54997048   1.69423877 
C    3.31467172   0.07341102  -1.01192400 
H    4.17119841  -0.48977194  -1.41023693 
H   -0.61402379   3.77550315   1.51086486 
*
