! EnGrad PBEh-3c
%output 
xyzfile=True 
end 
%scf 
maxiter 250 
end
%output
Print[P_Hirshfeld] = 1
end
% maxcore
4000
*xyz 0 1
C   -1.67130728   0.20970315  -0.29525633 
C   -1.98353264  -0.81157317  -1.19896099 
C   -1.58955441  -2.12341641  -0.97977546 
C   -0.72364979  -2.33684091   0.07687626 
C   -0.99059308  -0.11127189   0.82515754 
C   -0.41851577  -1.32019952   0.98613895 
H   -1.97209093   1.20662471  -0.59617971 
H   -2.59695649  -0.60806990  -2.06754243 
H   -1.93118364  -2.94359563  -1.61380136 
H    0.29608624  -1.57287937   1.75757574 
H   -0.34283662  -3.33609503   0.23474693 
Pd   1.38176589   1.09805598   0.03134625 
O    3.08516186   1.25521754  -1.35362502 
O    2.56951743  -0.47950217  -0.15357535 
O    0.39402715   2.77587340   0.06961150 
C    0.08879260   2.93921997   1.30970480 
O    0.48930416   2.20073005   2.20211858 
H   -0.97632929   0.55047373   1.65117416 
C    3.32068714   0.08344537  -1.00886021 
H    4.18076011  -0.47339122  -1.39860572 
H   -0.61476406   3.78014664   1.50483935 
*
