! EnGrad PBEh-3c
%output 
xyzfile=True 
end 
%scf 
maxiter 250 
end
%output
Print[P_Hirshfeld] = 1
end
% maxcore
4000
*xyz 0 1
C   -1.69783526   0.20770339  -0.32621333 
C   -2.00549718  -0.80501416  -1.17903817 
C   -1.61924332  -2.11650651  -0.95027042 
C   -0.74102574  -2.33698436   0.09716830 
C   -0.98466041  -0.16798911   0.75052495 
C   -0.41692225  -1.36518542   0.98619240 
H   -1.95452634   1.21828267  -0.58178896 
H   -2.60575110  -0.59792848  -2.04154152 
H   -1.96813801  -2.93842065  -1.57754254 
H    0.29661706  -1.55941007   1.76323471 
H   -0.35645303  -3.32304199   0.25055177 
Pd   1.38554248   1.09178228   0.01771048 
O    3.09691025   1.28168566  -1.32426903 
O    2.57047468  -0.48339448  -0.16895477 
O    0.39520861   2.76229330   0.07793585 
C    0.08920741   2.93670709   1.31838340 
O    0.48708579   2.21161658   2.21508377 
H   -0.90025800   0.52576667   1.54285504 
C    3.33207419   0.10072681  -1.00189094 
H    4.19996298  -0.44514938  -1.38018259 
H   -0.61138415   3.78171516   1.49278058 
*
