! EnGrad PBEh-3c
%output 
xyzfile=True 
end 
%scf 
maxiter 250 
end
%output
Print[P_Hirshfeld] = 1
end
% maxcore
4000
*xyz 0 1
C   -1.72258657   0.20264507  -0.36221997 
C   -2.03548759  -0.82014047  -1.20173643 
C   -1.62322607  -2.10483676  -0.93413188 
C   -0.75214857  -2.37625738   0.09406304 
C   -0.96822933  -0.18637046   0.71620944 
C   -0.41269304  -1.40741300   0.98458213 
H   -1.95939301   1.23089786  -0.55885306 
H   -2.60891230  -0.58672691  -2.03790504 
H   -1.97054641  -2.92226390  -1.55998647 
H    0.28938802  -1.55045722   1.78545333 
H   -0.35191572  -3.32311983   0.25743793 
Pd   1.38933784   1.09722887   0.01360027 
O    3.08807764   1.28506721  -1.31232893 
O    2.57311473  -0.48614780  -0.17634276 
O    0.39437821   2.75984601   0.07929941 
C    0.09058154   2.93775280   1.31910222 
O    0.49516137   2.22125934   2.21238117 
H   -0.86863242   0.55181239   1.54049089 
C    3.33843347   0.10778945  -0.99069545 
H    4.20633603  -0.43534531  -1.37786160 
H   -0.60168078   3.78129707   1.48953506 
*
