! EnGrad PBEh-3c
%output 
xyzfile=True 
end 
%scf 
maxiter 250 
end
%output
Print[P_Hirshfeld] = 1
end
% maxcore
4000
*xyz 0 1
C   -1.72163541   0.19159423  -0.36800207 
C   -2.05030303  -0.82944487  -1.21350699 
C   -1.62510194  -2.11306908  -0.94022310 
C   -0.75878050  -2.39617098   0.09228900 
C   -0.95092143  -0.15626035   0.73576515 
C   -0.41564374  -1.41356378   0.97686942 
H   -1.96898093   1.23918651  -0.54483362 
H   -2.62468392  -0.58153007  -2.06187058 
H   -1.96520177  -2.91255824  -1.55611916 
H    0.28247361  -1.54840800   1.80211339 
H   -0.34095962  -3.35107869   0.25808398 
Pd   1.38988518   1.10025794   0.01707445 
O    3.07965806   1.28508042  -1.30977842 
O    2.57180344  -0.48829217  -0.17675476 
O    0.39336276   2.76107012   0.07628322 
C    0.09020520   2.94329230   1.31618858 
O    0.50347540   2.22488686   2.20983775 
H   -0.85866711   0.56302325   1.54299988 
C    3.34279726   0.10838970  -0.98481720 
H    4.20890959  -0.43175718  -1.38041660 
H   -0.59291766   3.77989912   1.48903615 
*
