! EnGrad PBEh-3c
%output 
xyzfile=True 
end 
%scf 
maxiter 250 
end
%output
Print[P_Hirshfeld] = 1
end
% maxcore
4000
*xyz 0 1
C   -1.68978169   0.19508131  -0.36840905 
C   -1.86916431  -0.81002240  -1.31558231 
C   -1.38207256  -2.08303172  -1.10773796 
C   -0.60007496  -2.34735914   0.00612611 
C   -1.02241281  -0.10172555   0.86978881 
C   -0.38505623  -1.37431499   0.98259889 
H   -2.14206669   1.14259357  -0.56665489 
H   -2.48609362  -0.60713654  -2.18335502 
H   -1.63112629  -2.86821420  -1.78844993 
H    0.23158925  -1.62238980   1.82841230 
H   -0.21193929  -3.33894297   0.16012795 
Pd   1.39994536   1.15747417   0.02716313 
O    2.92031104   1.08192472  -1.49695229 
O    2.60648914  -0.48717710  -0.03796667 
O    0.37682294   2.87932762  -0.03991309 
C    0.11370166   2.92854750   1.37320320 
O    0.53172937   2.22255079   2.04248955 
H   -1.43785402   0.93743709   2.58102377 
C    3.25352047  -0.05596564  -1.05274993 
H    4.03535488  -0.63997722  -1.50607441 
H   -0.61001045   3.78853234   1.58948776 
*
