! EnGrad PBEh-3c
%output 
xyzfile=True 
end 
%scf 
maxiter 250 
end
%output
Print[P_Hirshfeld] = 1
end
% maxcore
4000
*xyz 0 1
C   -1.68351917   0.19317555  -0.36198282 
C   -1.86308014  -0.80276706  -1.31684011 
C   -1.37484228  -2.07601077  -1.10518714 
C   -0.59403164  -2.34021256   0.00703669 
C   -1.02270591  -0.12811787   0.84036781 
C   -0.38742042  -1.37067679   0.98400441 
H   -2.15131125   1.13900008  -0.56930072 
H   -2.48073864  -0.60792521  -2.18451593 
H   -1.62031233  -2.86562563  -1.79542603 
H    0.23007815  -1.62673549   1.83033323 
H   -0.20833924  -3.33601364   0.15786411 
Pd   1.40665925   1.15222664  -0.00141534 
O    2.91826765   1.07650847  -1.49088091 
O    2.62330378  -0.49084163  -0.03105818 
O    0.36742913   2.88240134   0.00392377 
C    0.09999512   2.96741568   1.31240339 
O    0.54604237   2.19930434   2.06680178 
H   -1.45609886   0.95725312   2.62268086 
C    3.22690402  -0.06419791  -1.06052194 
H    4.03378362  -0.64492046  -1.50485331 
H   -0.60914095   3.78533848   1.59483123 
*
