! EnGrad PBEh-3c
%output 
xyzfile=True 
end 
%scf 
maxiter 250 
end
%output
Print[P_Hirshfeld] = 1
end
% maxcore
4000
*xyz 0 1
C   -1.68700265   0.19273993  -0.36058828 
C   -1.87335342  -0.81119641  -1.31420867 
C   -1.38577966  -2.08549671  -1.10452182 
C   -0.60413551  -2.34775062   0.00638468 
C   -1.02287421  -0.09515797   0.87584233 
C   -0.38870738  -1.36756717   0.98156017 
H   -2.13776459   1.14682852  -0.56739024 
H   -2.48946280  -0.60733257  -2.18210757 
H   -1.63940348  -2.87257069  -1.78614128 
H    0.23371094  -1.62122638   1.82741514 
H   -0.21431966  -3.34180608   0.16164852 
Pd   1.39661130   1.16039131   0.03222365 
O    2.92649861   1.08046667  -1.49563288 
O    2.60449256  -0.48580028  -0.04536216 
O    0.37675257   2.87356151  -0.01638534 
C    0.09232893   2.96831407   1.30864570 
O    0.55385641   2.18384957   2.08624300 
H   -1.42602737   0.92357840   2.55293149 
C    3.25202868  -0.04333655  -1.04499487 
H    4.04164760  -0.63851859  -1.50678311 
H   -0.60681003   3.78465932   1.58734946 
*
