! EnGrad PBEh-3c
%output 
xyzfile=True 
end 
%scf 
maxiter 250 
end
%output
Print[P_Hirshfeld] = 1
end
% maxcore
4000
*xyz 0 1
C   -1.68008345   0.19086571  -0.32530761 
C   -1.89981017  -0.81448837  -1.29042520 
C   -1.42650225  -2.10227682  -1.08586737 
C   -0.63002865  -2.34558252   0.02170199 
C   -1.02547540  -0.05449792   0.92320260 
C   -0.40442912  -1.33573476   0.98116556 
H   -2.09824343   1.16572407  -0.57330578 
H   -2.51726752  -0.60967074  -2.16839301 
H   -1.70683330  -2.90392184  -1.76195119 
H    0.24614384  -1.60949923   1.80950859 
H   -0.23861799  -3.35566430   0.17451536 
Pd   1.38925090   1.16251849   0.06847633 
O    2.96467661   1.11246104  -1.48437955 
O    2.58088923  -0.47525512  -0.07328580 
O    0.38211053   2.84694799   0.03755521 
C    0.09474305   2.96427380   1.25404722 
O    0.55091942   2.17634803   2.11065511 
H   -1.32627901   0.81533436   2.32445468 
C    3.27224100   0.00035311  -1.02134757 
H    4.07652519  -0.60897090  -1.49367734 
H   -0.59961535   3.77390375   1.56569895 
*
