! EnGrad PBEh-3c
%output 
xyzfile=True 
end 
%scf 
maxiter 250 
end
%output
Print[P_Hirshfeld] = 1
end
% maxcore
4000
*xyz 0 1
C   -1.67586787   0.19830517  -0.30238314 
C   -1.92801422  -0.81303627  -1.25738775 
C   -1.48223245  -2.11753363  -1.05828173 
C   -0.65922874  -2.33982577   0.04335476 
C   -1.02475021  -0.02337918   0.96152002 
C   -0.41224915  -1.31592658   0.98381912 
H   -2.04906239   1.17769954  -0.58428643 
H   -2.54978519  -0.61406414  -2.14298377 
H   -1.78988475  -2.93518625  -1.72434323 
H    0.26086442  -1.59583568   1.78150285 
H   -0.27468156  -3.36071492   0.19162525 
Pd   1.39220883   1.14607735   0.07739176 
O    3.01222186   1.16545952  -1.45369145 
O    2.56563968  -0.46750512  -0.09451857 
O    0.39281692   2.81808917   0.05380025 
C    0.09138395   2.95499125   1.28566309 
O    0.52894231   2.19201557   2.11418771 
H   -1.20604735   0.69403673   2.05878719 
C    3.29025787   0.02998335  -1.01814196 
H    4.11555273  -0.56324328  -1.46349267 
H   -0.59361976   3.75976771   1.53808996 
*
