! EnGrad PBEh-3c
%output 
xyzfile=True 
end 
%scf 
maxiter 250 
end
%output
Print[P_Hirshfeld] = 1
end
% maxcore
4000
*xyz 0 1
C   -1.85938593   0.16567331  -0.21499345 
C   -1.78534976  -0.72589164  -1.25958566 
C   -1.14720063  -1.92483731  -1.10228474 
C   -0.49775974  -2.24662476   0.05528288 
C   -1.25988332  -0.19762385   1.00111820 
C   -0.52781861  -1.38568185   1.12798991 
H   -2.34993474   1.15049751  -0.29731076 
H   -2.23913670  -0.42463789  -2.15376092 
H   -1.15883191  -2.61706889  -1.88960941 
H   -0.00103076  -1.58127618   2.07621308 
H    0.03597157  -3.13689242   0.19775206 
Pd   1.51641709   1.29855265   0.09159456 
O    2.53681025   0.87043240  -1.60735343 
O    2.62406293  -0.40908360   0.11901966 
O    0.37211594   2.93229648  -0.05743432 
C    0.14791196   2.94453627   1.17813137 
O    0.65163899   2.03821394   1.89621121 
H   -1.35682107   0.41623927   1.82428626 
C    3.00433188  -0.15114335  -1.04872563 
H    3.76662305  -0.76185933  -1.53679946 
H   -0.47888153   3.74832253   1.60193503 
*
