! EnGrad PBEh-3c
%output 
xyzfile=True 
end 
%scf 
maxiter 250 
end
%output
Print[P_Hirshfeld] = 1
end
% maxcore
4000
*xyz 0 1
C   -1.85548091   0.16504741  -0.22192907 
C   -1.81311634  -0.73846910  -1.26398702 
C   -1.18445668  -1.94380496  -1.09501483 
C   -0.51657695  -2.26898550   0.05547168 
C   -1.24354566  -0.20989150   0.97017187 
C   -0.52330624  -1.38898059   1.11797417 
H   -2.33502620   1.16172391  -0.28562345 
H   -2.27829821  -0.42236542  -2.17077858 
H   -1.20745012  -2.63272144  -1.86911118 
H    0.00144598  -1.56805108   2.07555906 
H    0.03053591  -3.17328899   0.20760414 
Pd   1.53174587   1.31296040   0.09808662 
O    2.54673561   0.89044601  -1.59296667 
O    2.63619418  -0.40031724   0.12799064 
O    0.38955443   2.94481835  -0.05981646 
C    0.14864929   2.94044167   1.17383366 
O    0.64546439   2.02186128   1.88732080 
H   -1.30518890   0.44110555   1.80262293 
C    3.01589457  -0.13284772  -1.03669330 
H    3.78657118  -0.73080962  -1.52302987 
H   -0.47729819   3.73831698   1.60319619 
*
