! EnGrad PBEh-3c
%output 
xyzfile=True 
end 
%scf 
maxiter 250 
end
%output
Print[P_Hirshfeld] = 1
end
% maxcore
4000
*xyz 0 1
C   -1.84023595   0.17286318  -0.19432336 
C   -1.84343819  -0.71661483  -1.25268822 
C   -1.21747350  -1.96726957  -1.09638270 
C   -0.52535942  -2.27441141   0.09015095 
C   -1.22532793  -0.18290489   0.98098671 
C   -0.53542619  -1.36066703   1.12636014 
H   -2.30417861   1.13246201  -0.30217334 
H   -2.32375878  -0.45550266  -2.21168391 
H   -1.26456713  -2.70660119  -1.91042798 
H    0.00184610  -1.56913304   2.02866651 
H    0.01138409  -3.23430391   0.18488714 
Pd   1.52075840   1.31084105   0.11621368 
O    2.56486246   0.90935622  -1.58693192 
O    2.64526671  -0.38683977   0.13350447 
O    0.41141530   2.96510356  -0.05280522 
C    0.15141091   2.94880393   1.18131106 
O    0.64221689   2.02676007   1.87029274 
H   -1.26371010   0.49775063   1.83021189 
C    3.05468434  -0.10316907  -1.02113101 
H    3.81645759  -0.71726332  -1.52425567 
H   -0.48324243   3.72629133   1.60723038 
*
