! EnGrad PBEh-3c
%output 
xyzfile=True 
end 
%scf 
maxiter 250 
end
%output
Print[P_Hirshfeld] = 1
end
% maxcore
4000
*xyz 0 1
C   -1.83740022   0.16889990  -0.19838521 
C   -1.84313584  -0.72978273  -1.25172529 
C   -1.22465789  -1.97834952  -1.10440465 
C   -0.53764746  -2.27533038   0.08057142 
C   -1.21739476  -0.16217936   0.99759697 
C   -0.53792396  -1.36349040   1.12180735 
H   -2.29916436   1.12896337  -0.31113240 
H   -2.33105481  -0.47439404  -2.20927509 
H   -1.28013001  -2.71855214  -1.91255914 
H    0.00646610  -1.57333044   2.02014454 
H   -0.00611418  -3.23879716   0.17343819 
Pd   1.51577910   1.30818528   0.11263335 
O    2.57116156   0.91254438  -1.58273333 
O    2.65332603  -0.38049305   0.13552405 
O    0.41853645   2.97606489  -0.04976463 
C    0.15599410   2.95438815   1.18120700 
O    0.64308108   2.02993235   1.87023479 
H   -1.25657982   0.52150974   1.85167151 
C    3.06638278  -0.09677193  -1.01804403 
H    3.82426464  -0.71422764  -1.52466623 
H   -0.48953009   3.72575493   1.61264284 
*
