! EnGrad PBEh-3c
%output 
xyzfile=True 
end 
%scf 
maxiter 250 
end
%output
Print[P_Hirshfeld] = 1
end
% maxcore
4000
*xyz 0 1
C   -1.85067568   0.17107170  -0.19924387 
C   -1.66441377  -0.67375891  -1.29900834 
C   -0.97416560  -1.86246247  -1.16937550 
C   -0.38831789  -2.19441560   0.03965263 
C   -1.35684870  -0.12078063   1.18573871 
C   -0.53229728  -1.36674358   1.16002910 
H   -2.42134490   1.05786194  -0.32887394 
H   -2.12525294  -0.41702581  -2.24055864 
H   -0.91008454  -2.53569520  -1.99844037 
H   -0.05227383  -1.63840267   2.07191297 
H    0.14855307  -3.12053185   0.13952088 
Pd   1.40752790   1.22820807   0.06914576 
O    2.46452293   0.77030038  -1.68675435 
O    2.60279648  -0.43484052   0.09778775 
O    0.32371612   2.91693732  -0.09289513 
C    0.16859138   2.94744758   1.24058718 
O    0.67802748   2.13293021   1.88922767 
H   -1.63806759   0.51190283   2.20072811 
C    2.96149045  -0.24348738  -1.09569488 
H    3.64539036  -0.91120174  -1.60222341 
H   -0.48662974   3.77963466   1.61869349 
*
