! EnGrad PBEh-3c
%output 
xyzfile=True 
end 
%scf 
maxiter 250 
end
%output
Print[P_Hirshfeld] = 1
end
% maxcore
4000
*xyz 0 1
C   -1.84805791   0.16439189  -0.19115839 
C   -1.65488180  -0.66247612  -1.29450065 
C   -0.95550577  -1.84746812  -1.16658686 
C   -0.38153278  -2.18361361   0.04646244 
C   -1.34674028  -0.18072698   1.10875120 
C   -0.53869395  -1.36213908   1.15986576 
H   -2.43452428   1.05300910  -0.32627166 
H   -2.10948955  -0.41093719  -2.24195288 
H   -0.87714784  -2.51858865  -2.00533906 
H   -0.06183257  -1.64346276   2.08106560 
H    0.16323917  -3.10988193   0.13861710 
Pd   1.40634049   1.21491256   0.04085603 
O    2.45385342   0.75782787  -1.68837884 
O    2.61267369  -0.43699566   0.10206650 
O    0.32018233   2.91784087  -0.07194252 
C    0.15977862   2.97124536   1.20958288 
O    0.68859076   2.12604821   1.90417889 
H   -1.67603772   0.54868168   2.27649402 
C    2.93360669  -0.25198647  -1.10032982 
H    3.62841897  -0.92307425  -1.60422402 
H   -0.48212363   3.77594955   1.62272580 
*
