! EnGrad PBEh-3c
%output 
xyzfile=True 
end 
%scf 
maxiter 250 
end
%output
Print[P_Hirshfeld] = 1
end
% maxcore
4000
*xyz 0 1
C   -1.84453204   0.16758288  -0.18305351 
C   -1.66636362  -0.67265638  -1.29442335 
C   -0.97693730  -1.86355242  -1.16739439 
C   -0.39184362  -2.19118097   0.04222619 
C   -1.35250363  -0.12951168   1.17148096 
C   -0.54144547  -1.35247285   1.15986525 
H   -2.42152532   1.06143259  -0.33149785 
H   -2.12771292  -0.41797984  -2.24063729 
H   -0.91491114  -2.53965814  -1.99908759 
H   -0.04883621  -1.63991734   2.07270852 
H    0.14693050  -3.12284159   0.13972003 
Pd   1.40936292   1.22806904   0.06491463 
O    2.46899008   0.76862395  -1.68281651 
O    2.60408874  -0.43565447   0.09717945 
O    0.32389865   2.91497157  -0.07571955 
C    0.15661498   2.96779892   1.21063899 
O    0.68726725   2.11623240   1.90585929 
H   -1.63214140   0.50624027   2.18867047 
C    2.95675081  -0.23498887  -1.09465921 
H    3.64995304  -0.91035779  -1.60226843 
H   -0.48507813   3.77693087   1.61831901 
*
