! EnGrad PBEh-3c
%output 
xyzfile=True 
end 
%scf 
maxiter 250 
end
%output
Print[P_Hirshfeld] = 1
end
% maxcore
4000
*xyz 0 1
C   -1.83123637   0.17233181  -0.12174195 
C   -1.69304738  -0.67760932  -1.26312056 
C   -1.02189712  -1.88972377  -1.15975349 
C   -0.42334756  -2.18234428   0.05734083 
C   -1.33347135  -0.12349930   1.15843566 
C   -0.57014047  -1.29911582   1.17203527 
H   -2.39769822   1.08200697  -0.34364589 
H   -2.16240582  -0.42958920  -2.23045297 
H   -0.99054719  -2.58692190  -1.99195792 
H   -0.02264961  -1.63534905   2.05802033 
H    0.11368287  -3.14252916   0.14566477 
Pd   1.42872957   1.24880092   0.09171623 
O    2.49857606   0.79310715  -1.66675211 
O    2.59440428  -0.43299242   0.09393066 
O    0.33074808   2.90926992  -0.04949991 
C    0.14376386   2.97582940   1.17746684 
O    0.68594625   2.08829294   1.91695460 
H   -1.54386696   0.43142563   2.02238531 
C    2.98366708  -0.19712755  -1.08085283 
H    3.69484995  -0.88045326  -1.59458935 
H   -0.48522725   3.77178258   1.60894547 
*
