! EnGrad PBEh-3c
%output 
xyzfile=True 
end 
%scf 
maxiter 250 
end
%output
Print[P_Hirshfeld] = 1
end
% maxcore
4000
*xyz 0 1
C   -1.83287056   0.17565996  -0.11373254 
C   -1.70582224  -0.67543328  -1.24421742 
C   -1.04119881  -1.89610027  -1.15208907 
C   -0.43751971  -2.17571274   0.07015995 
C   -1.31932895  -0.14357851   1.12067532 
C   -0.57291713  -1.29420933   1.17525891 
H   -2.38634621   1.08804034  -0.34359870 
H   -2.17394953  -0.43262407  -2.21846829 
H   -1.02039563  -2.60441437  -1.98759972 
H   -0.01651112  -1.62977009   2.05142734 
H    0.09808542  -3.14252254   0.15075944 
Pd   1.44160624   1.25576988   0.09813992 
O    2.50717549   0.80753715  -1.66035160 
O    2.59276420  -0.43065648   0.09590857 
O    0.33503024   2.90897554  -0.05011286 
C    0.14296191   2.96983826   1.18428117 
O    0.67913590   2.08488039   1.91147801 
H   -1.51107245   0.41391133   1.97207446 
C    2.99268746  -0.18824119  -1.07528959 
H    3.71075201  -0.86457382  -1.58843411 
H   -0.48417924   3.76867399   1.60463958 
*
