! EnGrad PBEh-3c
%output 
xyzfile=True 
end 
%scf 
maxiter 250 
end
%output
Print[P_Hirshfeld] = 1
end
% maxcore
4000
*xyz 0 1
C   -1.85057906   0.18155752  -0.14700852 
C   -1.73309541  -0.66913967  -1.21214415 
C   -1.07711573  -1.89696331  -1.12633875 
C   -0.46285145  -2.16899204   0.09671348 
C   -1.28562506  -0.21028308   1.00992625 
C   -0.55446845  -1.32946760   1.17068195 
H   -2.36538442   1.09730747  -0.33257061 
H   -2.18864771  -0.43426441  -2.17989808 
H   -1.07052750  -2.62715857  -1.97232023 
H   -0.01372688  -1.61262982   2.04317181 
H    0.06636149  -3.12495107   0.16580672 
Pd   1.47290642   1.26504896   0.09382909 
O    2.51931047   0.83522481  -1.64433854 
O    2.59818426  -0.42498072   0.10385941 
O    0.34470624   2.91211810  -0.05369906 
C    0.14315033   2.95727801   1.20047642 
O    0.66372750   2.08009542   1.89976445 
H   -1.46099390   0.41410361   1.92520904 
C    2.99699983  -0.17802882  -1.06625112 
H    3.73443661  -0.83010520  -1.57163935 
H   -0.48052713   3.76080798   1.59857535 
*
