! EnGrad PBEh-3c
%output 
xyzfile=True 
end 
%scf 
maxiter 250 
end
%output
Print[P_Hirshfeld] = 1
end
% maxcore
4000
*xyz 0 1
C   -1.86002402   0.18206257  -0.17658226 
C   -1.74689847  -0.68088139  -1.22689454 
C   -1.09296645  -1.89719631  -1.11422441 
C   -0.46809363  -2.19095595   0.08775361 
C   -1.28129408  -0.19888426   1.02039450 
C   -0.54049767  -1.35564352   1.16225453 
H   -2.36001319   1.10747486  -0.32399655 
H   -2.19485585  -0.43352202  -2.16175274 
H   -1.09094042  -2.62735352  -1.95587062 
H   -0.01164876  -1.60418020   2.04842780 
H    0.05326647  -3.11573851   0.17371232 
Pd   1.48428177   1.27229134   0.09239789 
O    2.52389982   0.84390253  -1.63553844 
O    2.60282291  -0.42185204   0.10698406 
O    0.34965507   2.91538106  -0.05414363 
C    0.14445773   2.95304672   1.19667500 
O    0.66017473   2.07182564   1.89941710 
H   -1.43603031   0.40591472   1.89106802 
C    2.99855524  -0.17298873  -1.06338956 
H    3.74214547  -0.81419533  -1.56333525 
H   -0.48042634   3.75889244   1.59861774 
*
