! EnGrad PBEh-3c
%output 
xyzfile=True 
end 
%scf 
maxiter 250 
end
%output
Print[P_Hirshfeld] = 1
end
% maxcore
4000
*xyz 0 1
C   -1.86110899   0.17459914  -0.19735052 
C   -1.75957879  -0.70008818  -1.25130294 
C   -1.10800999  -1.90247160  -1.10776561 
C   -0.47326820  -2.22032254   0.06878528 
C   -1.27717430  -0.18973558   1.02741732 
C   -0.53326788  -1.37233749   1.14758229 
H   -2.35988368   1.12403020  -0.31359829 
H   -2.20439384  -0.43018805  -2.15281614 
H   -1.10830637  -2.61765594  -1.93077403 
H   -0.00847918  -1.59674600   2.06252700 
H    0.04671336  -3.11472503   0.18207462 
Pd   1.49410132   1.27991822   0.08862574 
O    2.52662661   0.85063208  -1.62612521 
O    2.61118397  -0.41787255   0.11072224 
O    0.35630312   2.92116285  -0.05581719 
C    0.14607772   2.95099109   1.18879512 
O    0.65839711   2.06030094   1.90071043 
H   -1.41483509   0.40983167   1.87372059 
C    2.99752867  -0.16872375  -1.06010785 
H    3.74670262  -0.79794366  -1.55418689 
H   -0.48033575   3.75636426   1.60079080 
*
