! EnGrad PBEh-3c
%output 
xyzfile=True 
end 
%scf 
maxiter 250 
end
%output
Print[P_Hirshfeld] = 1
end
% maxcore
4000
*xyz -1 1
Pd  -2.19206523  -1.65152125   0.76947607 
Cl  -3.52050260  -3.29121054  -0.17547698 
Cl  -0.79762100  -4.56788743   1.48569597 
Cl  -3.97332471  -0.23391793   0.69525738 
N   -0.93775528  -0.10801461   1.42641208 
C   -1.25678356   0.43820279   2.58595069 
C   -0.77014341   1.67779469   3.00757701 
C    0.08685500   2.34763264   2.17169500 
C   -0.07757140   0.50731810   0.59057913 
C    0.44932495   1.76672544   0.94885707 
H    0.48360261   3.31212500   2.46707969 
H   -1.95043899  -0.11224195   3.20811026 
H   -1.06896237   2.08300339   3.96349165 
C    0.34154297  -0.16564438  -0.60832122 
C    1.33765321   2.43116868   0.04838056 
C    1.67853088   1.84969356  -1.12266478 
C    1.21082088   0.54257740  -1.46844524 
H    1.72447900   3.40844920   0.30930382 
H    2.34272374   2.37664208  -1.79840377 
C   -0.05720955  -1.48277439  -0.92885254 
C    1.65109204  -0.05567739  -2.65795035 
C    0.36327060  -2.00876567  -2.13466383 
C    1.25677436  -1.33154859  -2.97144074 
H    2.31004335   0.47794874  -3.33244908 
H    1.61531142  -1.77970333  -3.89310434 
H   -0.29522488  -3.43766646  -0.13254023 
H    0.04557249  -2.99270781  -2.45355876 
*
