! EnGrad PBEh-3c
%output 
xyzfile=True 
end 
%scf 
maxiter 250 
end
%output
Print[P_Hirshfeld] = 1
end
% maxcore
4000
*xyz -1 1
Pd  -2.14250866  -1.67705694   0.65727452 
Cl  -3.52026518  -3.25953650  -0.15893660 
Cl  -0.72956568  -4.43287296   1.32633575 
Cl  -3.96619830  -0.21275145   0.71400207 
N   -0.96496424  -0.12193702   1.42786496 
C   -1.27166614   0.43257268   2.58817864 
C   -0.76134675   1.66462165   3.01220155 
C    0.08545959   2.34266355   2.17088749 
C   -0.06799027   0.48280262   0.61246020 
C    0.44780388   1.76408302   0.94923914 
H    0.48338179   3.30685231   2.45530374 
H   -1.95538248  -0.11317240   3.20847854 
H   -1.06679597   2.07366886   3.96083693 
C    0.34019469  -0.20168402  -0.60169857 
C    1.33312335   2.43464787   0.04829904 
C    1.67544910   1.85132877  -1.12446036 
C    1.20617933   0.54100489  -1.47236429 
H    1.71890609   3.40784787   0.31196772 
H    2.33730437   2.36982232  -1.80455278 
C   -0.07275479  -1.56474116  -0.88829852 
C    1.66054634  -0.05412713  -2.66324904 
C    0.37150652  -2.02705830  -2.12341346 
C    1.23665668  -1.31670291  -2.98566388 
H    2.31642814   0.48808406  -3.32658575 
H    1.60885406  -1.78565172  -3.89102503 
H   -0.35978192  -3.38818375   0.04545680 
H    0.05076958  -3.00494315  -2.44698211 
*
