! EnGrad PBEh-3c
%output 
xyzfile=True 
end 
%scf 
maxiter 250 
end
%output
Print[P_Hirshfeld] = 1
end
% maxcore
4000
*xyz -1 1
Pd  -2.12360343  -1.65786614   0.61317287 
Cl  -3.53809575  -3.25188752  -0.15453970 
Cl  -0.69699965  -4.32704522   1.23466953 
Cl  -3.94235422  -0.19816270   0.70660167 
N   -0.95937336  -0.12767943   1.42108887 
C   -1.27407131   0.42314191   2.58348972 
C   -0.75681954   1.65252036   3.01235259 
C    0.08434693   2.33396803   2.17158066 
C   -0.06667095   0.46580097   0.60823830 
C    0.44392124   1.74680810   0.95032933 
H    0.48166581   3.30283371   2.45032724 
H   -1.96469164  -0.12216818   3.21514102 
H   -1.06292192   2.06300196   3.96404507 
C    0.34085617  -0.23228186  -0.59333617 
C    1.32572159   2.42832198   0.04366203 
C    1.66391221   1.84670021  -1.12197924 
C    1.19201794   0.52133301  -1.46099374 
H    1.71206307   3.41094289   0.31360394 
H    2.33055265   2.36920919  -1.81184833 
C   -0.05561363  -1.57060517  -0.87223107 
C    1.65283450  -0.05257538  -2.66330927 
C    0.37330120  -2.04115444  -2.10867082 
C    1.22755305  -1.31969953  -2.98067664 
H    2.32067271   0.49730409  -3.32901805 
H    1.60490795  -1.78771618  -3.89361430 
H   -0.38983130  -3.35018903   0.15137317 
H    0.06626579  -3.02208715  -2.44588695 
*
