! EnGrad PBEh-3c
%output 
xyzfile=True 
end 
%scf 
maxiter 250 
end
%output
Print[P_Hirshfeld] = 1
end
% maxcore
4000
*xyz -1 1
Pd  -2.10044602  -1.60830573   0.55405278 
Cl  -3.56645806  -3.24418978  -0.15675050 
Cl  -0.64342419  -4.16114931   1.10787587 
Cl  -3.90102803  -0.17665114   0.69860878 
N   -0.95949023  -0.14488504   1.41937787 
C   -1.27820175   0.40615174   2.58259823 
C   -0.75773259   1.62794273   3.01242664 
C    0.08307890   2.31063966   2.16708712 
C   -0.06026979   0.44700355   0.60549783 
C    0.44713581   1.73034659   0.94675923 
H    0.47736496   3.29229977   2.44043744 
H   -1.97456820  -0.13290164   3.21442964 
H   -1.05588580   2.04290935   3.96802550 
C    0.36152955  -0.24791885  -0.58007600 
C    1.31212872   2.41825872   0.04418829 
C    1.64338563   1.82786006  -1.12293639 
C    1.19173170   0.50506194  -1.45740541 
H    1.69494524   3.40436136   0.31351926 
H    2.30753313   2.35646322  -1.81603276 
C   -0.04521324  -1.58775971  -0.84626987 
C    1.63237127  -0.05741284  -2.65970885 
C    0.38759735  -2.06215010  -2.09494117 
C    1.21886050  -1.33392229  -2.97099528 
H    2.31282533   0.50278628  -3.31981420 
H    1.58937240  -1.78762376  -3.88979337 
H   -0.42352044  -3.27141717   0.28866470 
H    0.09127208  -3.05187247  -2.44078678 
*
