! EnGrad PBEh-3c
%output 
xyzfile=True 
end 
%scf 
maxiter 250 
end
%output
Print[P_Hirshfeld] = 1
end
% maxcore
4000
*xyz -1 1
Pd  -2.07584763  -1.55326466   0.47882742 
Cl  -3.57231766  -3.23174681  -0.16378073 
Cl  -0.60453917  -4.12839127   1.07643176 
Cl  -3.88328893  -0.15457472   0.70422710 
N   -0.96310569  -0.15193890   1.41642963 
C   -1.28007216   0.39318243   2.58017706 
C   -0.75709564   1.60900478   3.01012331 
C    0.08114143   2.29430283   2.16776776 
C   -0.05167295   0.44315446   0.61245576 
C    0.45031872   1.72409413   0.94713227 
H    0.47150784   3.27764276   2.43102875 
H   -1.98281794  -0.14089334   3.20784894 
H   -1.05068406   2.02535969   3.96930671 
C    0.37610842  -0.24488994  -0.57990533 
C    1.30489066   2.40936918   0.04103295 
C    1.63632332   1.82376560  -1.12296694 
C    1.20225492   0.50529391  -1.45911592 
H    1.67978799   3.39513486   0.31190275 
H    2.28656356   2.34352806  -1.81695310 
C   -0.06612837  -1.57624736  -0.84101428 
C    1.62396706  -0.06542646  -2.66272183 
C    0.39323455  -2.07492346  -2.07896484 
C    1.21787301  -1.34292814  -2.96055929 
H    2.29731672   0.50014128  -3.30731723 
H    1.57459365  -1.78941753  -3.88396099 
H   -0.43564976  -3.21536321   0.36021562 
H    0.10675214  -3.06693121  -2.42833819 
*
