! EnGrad PBEh-3c
%output 
xyzfile=True 
end 
%scf 
maxiter 250 
end
%output
Print[P_Hirshfeld] = 1
end
% maxcore
4000
*xyz -1 1
Pt  -0.99033772  -0.88802409   0.53575485 
Cl  -0.25007665  -0.55471765   2.72396357 
Cl  -2.68382226  -2.25049947   1.15784008 
Cl  -1.59472194  -1.09093708  -1.70712767 
C    1.07944021   0.94121542  -0.52190413 
H    1.44585878   1.85904061  -0.04422983 
H    1.25962073  -0.04599661   0.25751493 
H    1.67333746   0.72057148  -1.40073866 
H    0.05886038   1.30911112  -1.00092205 
*
