! EnGrad PBEh-3c
%output 
xyzfile=True 
end 
%scf 
maxiter 250 
end
%output
Print[P_Hirshfeld] = 1
end
% maxcore
4000
*xyz -1 1
Pt  -0.96521813  -0.88533296   0.52521305 
Cl  -0.23659747  -0.51126869   2.69147990 
Cl  -2.64647192  -2.18945145   1.14765656 
Cl  -1.53729412  -1.10355595  -1.70552118 
C    1.07155101   0.84510914  -0.44292279 
H    1.44840356   1.79555068   0.00065226 
H    1.15897987   0.04358425   0.09902065 
H    1.63332942   0.72896977  -1.40224044 
H    0.06821214   1.27591975  -0.91292382 
*
