! EnGrad PBEh-3c
%output 
xyzfile=True 
end 
%scf 
maxiter 250 
end
%output
Print[P_Hirshfeld] = 1
end
% maxcore
4000
*xyz -1 1
Pt  -0.96860457  -0.88529524   0.52414691 
Cl  -0.23641467  -0.51246133   2.68892602 
Cl  -2.64783369  -2.19167681   1.14944391 
Cl  -1.53788294  -1.10190603  -1.70383412 
C    1.05526740   0.91495368  -0.49561538 
H    1.45022311   1.78274850   0.00282954 
H    1.15311795   0.01963729   0.11682785 
H    1.63487024   0.72491184  -1.39177813 
H    0.09118644   1.24873751  -0.89050651 
*
