! EnGrad PBEh-3c
%output 
xyzfile=True 
end 
%scf 
maxiter 250 
end
%output
Print[P_Hirshfeld] = 1
end
% maxcore
4000
*xyz -1 1
Pt  -0.96682359  -0.88346341   0.52261268 
Cl  -0.23530429  -0.50976718   2.68672577 
Cl  -2.64850382  -2.19059490   1.15066378 
Cl  -1.53445785  -1.10238152  -1.70440096 
C    1.05294117   0.92532091  -0.50850052 
H    1.45401977   1.77816759   0.01041676 
H    1.14412288   0.02033470   0.11346120 
H    1.63500264   0.72396548  -1.39117810 
H    0.09202608   1.23810659  -0.87923058 
*
