! EnGrad PBEh-3c
%output 
xyzfile=True 
end 
%scf 
maxiter 250 
end
%output
Print[P_Hirshfeld] = 1
end
% maxcore
4000
*xyz -1 1
Pt  -0.95880045  -0.87575991   0.51585916 
Cl  -0.22911951  -0.49504779   2.67517834 
Cl  -2.65149191  -2.18419405   1.15732444 
Cl  -1.51618744  -1.10463600  -1.70862445 
C    1.06439654   0.94925978  -0.53508856 
H    1.47461241   1.75637626   0.04915981 
H    1.09347859   0.04122299   0.08343470 
H    1.64343561   0.71888956  -1.40252141 
H    0.06740604   1.19376639  -0.83331740 
*
