! EnGrad PBEh-3c
%output 
xyzfile=True 
end 
%scf 
maxiter 250 
end
%output
Print[P_Hirshfeld] = 1
end
% maxcore
4000
*xyz -1 1
Pt  -0.96359337  -0.87641666   0.51702143 
Cl  -0.22718458  -0.49340468   2.67798646 
Cl  -2.65822394  -2.19056252   1.16225428 
Cl  -1.51733099  -1.10456866  -1.71542044 
C    1.05520585   0.95672337  -0.53906261 
H    1.48535792   1.76367346   0.05760883 
H    1.10113488   0.02994175   0.10287945 
H    1.65968538   0.71754868  -1.42124403 
H    0.05009643   1.19716942  -0.83996175 
*
