! EnGrad PBEh-3c
%output 
xyzfile=True 
end 
%scf 
maxiter 250 
end
%output
Print[P_Hirshfeld] = 1
end
% maxcore
4000
%pal nprocs 4
end
*xyz -1 1
Pt  -1.35217000  -1.05373000   0.67763000 
Cl  -0.32334000  -0.96830000   2.73825000 
Cl  -2.80942000  -2.67395000   1.18554000 
Cl  -2.06848000  -0.77739000  -1.49724000 
C    1.30911000   1.09625000  -0.62102000 
H    1.43281000   2.17689000  -0.60740000 
H    1.24079000   0.72779000   0.40140000 
H    2.16509000   0.63469000  -1.10795000 
H    0.40561000   0.83774000  -1.16921000 
*
