9
Generated by autodE on: 2023-07-19. E = -1539.031442 Ha
Pt   -0.46455  -0.66687   0.30881
Cl    0.06390  -0.01591   2.47910
Cl   -2.47693  -1.69578   1.05812
Cl   -0.91617  -1.30728  -1.88097
C     0.59059   0.94668  -0.42006
H     1.31055   1.32471   0.30473
H     0.97717  -1.03430   0.10847
H     1.08761   0.73787  -1.36676
H    -0.17217   1.71088  -0.59142
9
Generated by autodE on: 2023-07-19. E = -1539.023659 Ha
Pt   -0.53769  -0.70766   0.33669
Cl    0.03777  -0.03475   2.50809
Cl   -2.51673  -1.71827   1.07560
Cl   -0.94745  -1.33146  -1.88672
C     0.62579   0.95692  -0.43147
H     1.34768   1.34211   0.28998
H     1.03056  -0.97127   0.07340
H     1.12211   0.76545  -1.37987
H    -0.16205   1.69892  -0.58571
9
Generated by autodE on: 2023-07-19. E = -1539.025450 Ha
Pt   -0.52664  -0.70557   0.33433
Cl    0.03273  -0.04309   2.50992
Cl   -2.51972  -1.72570   1.07715
Cl   -0.95747  -1.32759  -1.88235
C     0.62830   0.95422  -0.43137
H     1.34872   1.34751   0.28612
H     1.02364  -0.95778   0.07822
H     1.12898   0.76403  -1.38055
H    -0.15868   1.69368  -0.59123
9
Generated by autodE on: 2023-07-19. E = -1539.026675 Ha
Pt   -0.51723  -0.70337   0.33252
Cl    0.02755  -0.05200   2.51193
Cl   -2.52149  -1.73316   1.07832
Cl   -0.96817  -1.32326  -1.87780
C     0.63124   0.95098  -0.43181
H     1.34987   1.35332   0.28219
H     1.01711  -0.94333   0.08310
H     1.13617   0.76237  -1.38080
H    -0.15523   1.68820  -0.59738
9
Generated by autodE on: 2023-07-19. E = -1539.027517 Ha
Pt   -0.50869  -0.70065   0.33090
Cl    0.02242  -0.06112   2.51393
Cl   -2.52194  -1.74035   1.07909
Cl   -0.97902  -1.31866  -1.87309
C     0.63417   0.94727  -0.43242
H     1.35086   1.35893   0.27847
H     1.01062  -0.92857   0.08790
H     1.14324   0.76022  -1.38064
H    -0.15188   1.68265  -0.60384
9
Generated by autodE on: 2023-07-19. E = -1539.027432 Ha
Pt   -0.50755  -0.69970   0.33148
Cl    0.01716  -0.07070   2.51671
Cl   -2.52269  -1.74836   1.08002
Cl   -0.99069  -1.31378  -1.86879
C     0.63892   0.94486  -0.43385
H     1.35239   1.36561   0.27416
H     1.00897  -0.91309   0.09206
H     1.15148   0.75842  -1.38070
H    -0.14821   1.67658  -0.61088
9
Generated by autodE on: 2023-07-19. E = -1539.027260 Ha
Pt   -0.50697  -0.69872   0.33229
Cl    0.01197  -0.08021   2.51965
Cl   -2.52278  -1.75619   1.08080
Cl   -1.00231  -1.30884  -1.86460
C     0.64361   0.94219  -0.43532
H     1.35394   1.37212   0.27012
H     1.00726  -0.89726   0.09591
H     1.15970   0.75630  -1.38061
H    -0.14465   1.67044  -0.61803
9
Generated by autodE on: 2023-07-19. E = -1539.027017 Ha
Pt   -0.50709  -0.69760   0.33329
Cl    0.00687  -0.08962   2.52272
Cl   -2.52213  -1.76379   1.08139
Cl   -1.01387  -1.30380  -1.86053
C     0.64825   0.93937  -0.43676
H     1.35541   1.37839   0.26634
H     1.00560  -0.88109   0.09940
H     1.16787   0.75380  -1.38036
H    -0.14118   1.66420  -0.62528
9
Generated by autodE on: 2023-07-19. E = -1539.026716 Ha
Pt   -0.50795  -0.69643   0.33449
Cl    0.00188  -0.09890   2.52594
Cl   -2.52078  -1.77117   1.08182
Cl   -1.02532  -1.29869  -1.85662
C     0.65285   0.93648  -0.43816
H     1.35679   1.38436   0.26281
H     1.00402  -0.86457   0.10250
H     1.17599   0.75090  -1.37995
H    -0.13778   1.65786  -0.63263
9
Generated by autodE on: 2023-07-19. E = -1539.027200 Ha
Pt   -0.50145  -0.69034   0.33294
Cl   -0.00094  -0.10531   2.52789
Cl   -2.51247  -1.77367   1.08000
Cl   -1.03281  -1.29368  -1.85344
C     0.65237   0.93160  -0.43818
H     1.35573   1.38488   0.26292
H     0.99591  -0.85217   0.10506
H     1.17961   0.74453  -1.37764
H    -0.13659   1.65387  -0.63916
9
Generated by autodE on: 2023-07-19. E = -1539.027868 Ha
Pt   -0.49939  -0.68042   0.33096
Cl   -0.00103  -0.10929   2.52889
Cl   -2.49582  -1.77205   1.07596
Cl   -1.03691  -1.28682  -1.85106
C     0.64830   0.92797  -0.43711
H     1.35052   1.37932   0.26596
H     0.99080  -0.84440   0.10651
H     1.17905   0.73303  -1.37284
H    -0.13684   1.65218  -0.64666
9
Generated by autodE on: 2023-07-19. E = -1539.028328 Ha
Pt   -0.49998  -0.67370   0.33129
Cl    0.00056  -0.11161   2.53050
Cl   -2.47946  -1.77145   1.07296
Cl   -1.04053  -1.27745  -1.85075
C     0.64431   0.92621  -0.43718
H     1.34405   1.37361   0.27031
H     0.98750  -0.83791   0.10761
H     1.17838   0.71974  -1.36756
H    -0.13693   1.65214  -0.65613
9
Generated by autodE on: 2023-07-19. E = -1539.028639 Ha
Pt   -0.50043  -0.66816   0.33133
Cl    0.00415  -0.11223   2.53241
Cl   -2.46652  -1.77413   1.07270
Cl   -1.04345  -1.26524  -1.85142
C     0.64006   0.92478  -0.43728
H     1.33633   1.36887   0.27519
H     0.98520  -0.83312   0.10833
H     1.17838   0.70575  -1.36199
H    -0.13664   1.65294  -0.66755
9
Generated by autodE on: 2023-07-19. E = -1539.028851 Ha
Pt   -0.50088  -0.66480   0.33335
Cl    0.00954  -0.11129   2.53283
Cl   -2.45666  -1.77951   1.07526
Cl   -1.04590  -1.25086  -1.85321
C     0.63608   0.92420  -0.43797
H     1.32756   1.36627   0.27994
H     0.98255  -0.83167   0.10914
H     1.17966   0.69307  -1.35622
H    -0.13587   1.65384  -0.68048
9
Generated by autodE on: 2023-07-19. E = -1539.029000 Ha
Pt   -0.50200  -0.66154   0.33308
Cl    0.01682  -0.10890   2.53388
Cl   -2.44922  -1.78710   1.08018
Cl   -1.04866  -1.23612  -1.85403
C     0.63256   0.92355  -0.43850
H     1.31830   1.36683   0.28401
H     0.98028  -0.83438   0.10963
H     1.18285   0.68312  -1.35019
H    -0.13548   1.65350  -0.69401
9
Generated by autodE on: 2023-07-19. E = -1539.029110 Ha
Pt   -0.50197  -0.65980   0.33733
Cl    0.02354  -0.10671   2.53174
Cl   -2.44162  -1.79384   1.08670
Cl   -1.05338  -1.22326  -1.85585
C     0.63006   0.92427  -0.43973
H     1.30893   1.37002   0.28735
H     0.97630  -0.84044   0.11061
H     1.18814   0.67637  -1.34453
H    -0.13515   1.65242  -0.70796
9
Generated by autodE on: 2023-07-19. E = -1539.029190 Ha
Pt   -0.50325  -0.65623   0.33351
Cl    0.03197  -0.10357   2.53404
Cl   -2.43581  -1.80119   1.09357
Cl   -1.05865  -1.21264  -1.85315
C     0.62769   0.92417  -0.44053
H     1.29960   1.37523   0.29004
H     0.97534  -0.84827   0.10961
H     1.19431   0.67162  -1.33879
H    -0.13573   1.65005  -0.72121
9
Generated by autodE on: 2023-07-19. E = -1539.029259 Ha
Pt   -0.50149  -0.65566   0.34062
Cl    0.03810  -0.10185   2.52998
Cl   -2.42848  -1.80532   1.10129
Cl   -1.06585  -1.20523  -1.85473
C     0.62637   0.92588  -0.44246
H     1.29066   1.38111   0.29199
H     0.97106  -0.85602   0.10954
H     1.20141   0.66882  -1.33406
H    -0.13586   1.64792  -0.73474
9
Generated by autodE on: 2023-07-19. E = -1539.029322 Ha
Pt   -0.50267  -0.65297   0.33705
Cl    0.04639  -0.09888   2.53132
Cl   -2.42292  -1.80956   1.11056
Cl   -1.07254  -1.19954  -1.85002
C     0.62444   0.92600  -0.44366
H     1.28125   1.38795   0.29372
H     0.97014  -0.86372   0.10739
H     1.20837   0.66620  -1.32882
H    -0.13709   1.64438  -0.74774
9
Generated by autodE on: 2023-07-19. E = -1539.029367 Ha
Pt   -0.50113  -0.65136   0.34175
Cl    0.05485  -0.09565   2.53035
Cl   -2.41694  -1.81189   1.12150
Cl   -1.08087  -1.19675  -1.84762
C     0.62256   0.92683  -0.44576
H     1.27126   1.39478   0.29480
H     0.96775  -0.86998   0.10542
H     1.21534   0.66402  -1.32410
H    -0.13862   1.64033  -0.76123
9
Generated by autodE on: 2023-07-19. E = -1539.029403 Ha
Pt   -0.50113  -0.65082   0.34313
Cl    0.06408  -0.09138   2.52952
Cl   -2.41095  -1.81187   1.13380
Cl   -1.08744  -1.19603  -1.84111
C     0.62072   0.92715  -0.44810
H     1.26190   1.40227   0.29442
H     0.96575  -0.87465   0.10256
H     1.22147   0.66126  -1.32018
H    -0.14080   1.63537  -0.77487
9
Generated by autodE on: 2023-07-19. E = -1539.029417 Ha
Pt   -0.49891  -0.64779   0.34663
Cl    0.07377  -0.08609   2.53033
Cl   -2.40580  -1.81186   1.14805
Cl   -1.09502  -1.19791  -1.83808
C     0.61837   0.92660  -0.45135
H     1.25318   1.40844   0.29237
H     0.96676  -0.87749   0.09942
H     1.22589   0.65896  -1.31804
H    -0.14367   1.62970  -0.78715
9
Generated by autodE on: 2023-07-19. E = -1539.029435 Ha
Pt   -0.49841  -0.65051   0.34896
Cl    0.08300  -0.08006   2.52831
Cl   -2.39971  -1.80841   1.15965
Cl   -1.09875  -1.20125  -1.82834
C     0.61695   0.92731  -0.45574
H     1.24646   1.41485   0.28826
H     0.96365  -0.87854   0.09711
H     1.22933   0.65576  -1.31803
H    -0.14634   1.62503  -0.79987
9
Generated by autodE on: 2023-07-19. E = -1539.029439 Ha
Pt   -0.49585  -0.64480   0.35220
Cl    0.09098  -0.07371   2.52811
Cl   -2.39626  -1.80698   1.17421
Cl   -1.10420  -1.20730  -1.82638
C     0.61442   0.92494  -0.45977
H     1.24038   1.41973   0.28331
H     0.96827  -0.87892   0.09350
H     1.23047   0.65263  -1.31891
H    -0.15003   1.61864  -0.81011
9
Generated by autodE on: 2023-07-19. E = -1539.029448 Ha
Pt   -0.49447  -0.64888   0.35497
Cl    0.10007  -0.06574   2.52990
Cl   -2.38989  -1.80246   1.18723
Cl   -1.10797  -1.21213  -1.81880
C     0.61276   0.92564  -0.46483
H     1.23609   1.42389   0.27677
H     0.96512  -0.87778   0.09306
H     1.23048   0.64998  -1.32172
H    -0.15373   1.61382  -0.81880
9
Generated by autodE on: 2023-07-19. E = -1539.029465 Ha
Pt   -0.49262  -0.64494   0.36001
Cl    0.10543  -0.05913   2.52607
Cl   -2.38691  -1.79921   1.20117
Cl   -1.10963  -1.21937  -1.80822
C     0.61014   0.92375  -0.46839
H     1.23218   1.42815   0.27133
H     0.96958  -0.87630   0.09172
H     1.22893   0.64615  -1.32408
H    -0.15784   1.60950  -0.82730
9
Generated by autodE on: 2023-07-19. E = -1539.029457 Ha
Pt   -0.49088  -0.64579   0.36272
Cl    0.11529  -0.04991   2.53167
Cl   -2.38164  -1.79465   1.21392
Cl   -1.11394  -1.22721  -1.80640
C     0.60843   0.92304  -0.47328
H     1.23008   1.43112   0.26351
H     0.96803  -0.87376   0.09161
H     1.22665   0.64333  -1.32845
H    -0.16182   1.60433  -0.83279
9
Generated by autodE on: 2023-07-19. E = -1539.029477 Ha
Pt   -0.48882  -0.64458   0.36695
Cl    0.12038  -0.04263   2.52766
Cl   -2.37735  -1.79082   1.22815
Cl   -1.11560  -1.23207  -1.79534
C     0.60620   0.92221  -0.47819
H     1.22846   1.43341   0.25570
H     0.97103  -0.87194   0.09071
H     1.22308   0.63997  -1.33348
H    -0.16590   1.60085  -0.83909
9
Generated by autodE on: 2023-07-19. E = -1539.029478 Ha
Pt   -0.48684  -0.64319   0.37165
Cl    0.12908  -0.03375   2.53062
Cl   -2.37301  -1.78492   1.24122
Cl   -1.11848  -1.24054  -1.78870
C     0.60447   0.92113  -0.48154
H     1.22742   1.43723   0.24919
H     0.97194  -0.86849   0.09118
H     1.22001   0.63668  -1.33736
H    -0.17005   1.59721  -0.84415
9
Generated by autodE on: 2023-07-19. E = -1539.029482 Ha
Pt   -0.48505  -0.64195   0.37515
Cl    0.13597  -0.02589   2.52958
Cl   -2.36821  -1.78188   1.25589
Cl   -1.12193  -1.24428  -1.78070
C     0.60249   0.92057  -0.48710
H     1.22767   1.43693   0.24010
H     0.97313  -0.86633   0.09030
H     1.21473   0.63416  -1.34407
H    -0.17323   1.59448  -0.84674
9
Generated by autodE on: 2023-07-19. E = -1539.029483 Ha
Pt   -0.48272  -0.64176   0.37857
Cl    0.14309  -0.01830   2.52965
Cl   -2.36372  -1.77512   1.26638
Cl   -1.12437  -1.25302  -1.77437
C     0.60109   0.91868  -0.49104
H     1.22760   1.44149   0.23234
H     0.97506  -0.86395   0.08885
H     1.21138   0.62920  -1.34920
H    -0.17822   1.59032  -0.85420
9
Generated by autodE on: 2023-07-19. E = -1539.029487 Ha
Pt   -0.48148  -0.63987   0.38156
Cl    0.15199  -0.01127   2.52871
Cl   -2.36015  -1.77312   1.27998
Cl   -1.12763  -1.25743  -1.76684
C     0.59911   0.91782  -0.49750
H     1.22789   1.43834   0.22340
H     0.97514  -0.86138   0.08771
H     1.20628   0.62748  -1.35675
H    -0.18000   1.58815  -0.85493
9
Generated by autodE on: 2023-07-19. E = -1539.029488 Ha
Pt   -0.47928  -0.63987   0.38505
Cl    0.15715  -0.00360   2.52845
Cl   -2.35482  -1.76644   1.29157
Cl   -1.13215  -1.26202  -1.76081
C     0.59806   0.91630  -0.49982
H     1.23023   1.44239   0.21560
H     0.97721  -0.85975   0.08599
H     1.20047   0.62296  -1.36170
H    -0.18476   1.58535  -0.85926
9
Generated by autodE on: 2023-07-19. E = -1539.029491 Ha
Pt   -0.47755  -0.63707   0.38842
Cl    0.16655   0.00265   2.52870
Cl   -2.35193  -1.76222   1.30229
Cl   -1.13356  -1.26763  -1.75303
C     0.59679   0.91646  -0.50542
H     1.23056   1.44125   0.20874
H     0.97761  -0.85603   0.08523
H     1.19786   0.62133  -1.36803
H    -0.18620   1.58456  -0.86111
9
Generated by autodE on: 2023-07-19. E = -1539.029490 Ha
Pt   -0.47597  -0.63613   0.39089
Cl    0.17182   0.01011   2.52762
Cl   -2.34759  -1.75707   1.31235
Cl   -1.13743  -1.26841  -1.74847
C     0.59684   0.91525  -0.50707
H     1.23399   1.44247   0.20253
H     0.97889  -0.85391   0.08336
H     1.19226   0.61976  -1.37243
H    -0.18873   1.58257  -0.86113
9
Generated by autodE on: 2023-07-19. E = -1539.029488 Ha
Pt   -0.47432  -0.63469   0.39331
Cl    0.17758   0.01358   2.52799
Cl   -2.34538  -1.75263   1.32023
Cl   -1.14019  -1.27369  -1.74264
C     0.59544   0.91599  -0.51139
H     1.23506   1.44237   0.19624
H     0.97985  -0.85166   0.08193
H     1.18966   0.61666  -1.37767
H    -0.18958   1.58398  -0.86416
9
Generated by autodE on: 2023-07-19. E = -1539.029486 Ha
Pt   -0.47422  -0.63404   0.39457
Cl    0.18422   0.02003   2.52563
Cl   -2.34319  -1.74877   1.32717
Cl   -1.14100  -1.27578  -1.73937
C     0.59589   0.91233  -0.51415
H     1.23755   1.44039   0.19118
H     0.97892  -0.84953   0.07937
H     1.18524   0.61562  -1.38297
H    -0.19260   1.57872  -0.86315
9
Generated by autodE on: 2023-07-19. E = -1539.029485 Ha
Pt   -0.47258  -0.63433   0.39607
Cl    0.18712   0.02316   2.52497
Cl   -2.34123  -1.74489   1.33490
Cl   -1.14793  -1.27923  -1.73517
C     0.59445   0.91291  -0.51732
H     1.24026   1.43899   0.18435
H     0.98060  -0.84927   0.07643
H     1.18079   0.61112  -1.38789
H    -0.19264   1.58097  -0.86458
9
Generated by autodE on: 2023-07-19. E = -1539.029480 Ha
Pt   -0.47247  -0.63185   0.39766
Cl    0.19313   0.02574   2.52495
Cl   -2.34008  -1.74025   1.33972
Cl   -1.14700  -1.28011  -1.73172
C     0.59510   0.91194  -0.51945
H     1.24224   1.43884   0.18146
H     0.97944  -0.84649   0.07553
H     1.17884   0.61149  -1.39132
H    -0.19326   1.58038  -0.86505
9
Generated by autodE on: 2023-07-19. E = -1539.029477 Ha
Pt   -0.47224  -0.63107   0.39813
Cl    0.19388   0.02959   2.52427
Cl   -2.33978  -1.73789   1.34156
Cl   -1.14888  -1.27963  -1.73089
C     0.59579   0.91229  -0.51922
H     1.24371   1.43814   0.18118
H     0.97968  -0.84507   0.07411
H     1.17901   0.61083  -1.39157
H    -0.19282   1.58034  -0.86355
9
Generated by autodE on: 2023-07-19. E = -1539.029470 Ha
Pt   -0.47257  -0.63086   0.39833
Cl    0.19435   0.03025   2.52396
Cl   -2.34033  -1.73592   1.34290
Cl   -1.14914  -1.28031  -1.73034
C     0.59617   0.91159  -0.51967
H     1.24500   1.43687   0.18053
H     0.97904  -0.84404   0.07291
H     1.17811   0.61046  -1.39265
H    -0.19209   1.58076  -0.86337
9
Generated by autodE on: 2023-07-19. E = -1539.029463 Ha
Pt   -0.47316  -0.63076   0.39821
Cl    0.19542   0.03071   2.52327
Cl   -2.34198  -1.73286   1.34301
Cl   -1.14960  -1.28101  -1.73031
C     0.59653   0.91077  -0.52013
H     1.24690   1.43467   0.17958
H     0.97834  -0.84282   0.07097
H     1.17702   0.60920  -1.39417
H    -0.19188   1.58046  -0.86184
9
Generated by autodE on: 2023-07-19. E = -1539.029456 Ha
Pt   -0.47399  -0.63048   0.39824
Cl    0.19487   0.03169   2.52303
Cl   -2.34361  -1.73073   1.34378
Cl   -1.15074  -1.28073  -1.73019
C     0.59705   0.91012  -0.51990
H     1.24813   1.43277   0.18007
H     0.97719  -0.84207   0.06966
H     1.17659   0.60914  -1.39449
H    -0.19092   1.58101  -0.86075
9
Generated by autodE on: 2023-07-19. E = -1539.029448 Ha
Pt   -0.47494  -0.63031   0.39837
Cl    0.19495   0.03159   2.52288
Cl   -2.34530  -1.72839   1.34367
Cl   -1.15106  -1.28052  -1.73032
C     0.59759   0.90948  -0.51938
H     1.24981   1.43089   0.18050
H     0.97614  -0.84125   0.06848
H     1.17617   0.60808  -1.39468
H    -0.19004   1.58121  -0.85888
9
Generated by autodE on: 2023-07-19. E = -1539.029441 Ha
Pt   -0.47587  -0.63024   0.39784
Cl    0.19433   0.03194   2.52228
Cl   -2.34769  -1.72594   1.34302
Cl   -1.15210  -1.28023  -1.73097
C     0.59841   0.90863  -0.51919
H     1.25169   1.42803   0.18108
H     0.97493  -0.84056   0.06665
H     1.17577   0.60794  -1.39530
H    -0.18887   1.58173  -0.85725
9
Generated by autodE on: 2023-07-19. E = -1539.029432 Ha
Pt   -0.47705  -0.63006   0.39779
Cl    0.19396   0.03153   2.52214
Cl   -2.34966  -1.72368   1.34278
Cl   -1.15226  -1.27954  -1.73150
C     0.59891   0.90802  -0.51851
H     1.25316   1.42621   0.18190
H     0.97367  -0.83980   0.06539
H     1.17556   0.60711  -1.39520
H    -0.18777   1.58217  -0.85534
9
Generated by autodE on: 2023-07-19. E = -1539.029425 Ha
Pt   -0.47831  -0.63043   0.39731
Cl    0.19297   0.03129   2.52168
Cl   -2.35251  -1.72170   1.34142
Cl   -1.15333  -1.27971  -1.73229
C     0.59963   0.90680  -0.51786
H     1.25484   1.42273   0.18310
H     0.97218  -0.83951   0.06378
H     1.17515   0.60656  -1.39535
H    -0.18668   1.58233  -0.85328
9
Generated by autodE on: 2023-07-19. E = -1539.029416 Ha
Pt   -0.47959  -0.63077   0.39696
Cl    0.19205   0.03052   2.52129
Cl   -2.35474  -1.71992   1.34112
Cl   -1.15339  -1.27934  -1.73318
C     0.59997   0.90570  -0.51736
H     1.25606   1.42041   0.18390
H     0.97079  -0.83932   0.06230
H     1.17490   0.60542  -1.39534
H    -0.18570   1.58232  -0.85153
9
Generated by autodE on: 2023-07-19. E = -1539.029410 Ha
Pt   -0.48086  -0.63119   0.39652
Cl    0.19136   0.02985   2.52093
Cl   -2.35750  -1.71807   1.33936
Cl   -1.15416  -1.27959  -1.73408
C     0.60068   0.90454  -0.51651
H     1.25759   1.41700   0.18534
H     0.96939  -0.83909   0.06077
H     1.17464   0.60482  -1.39518
H    -0.18453   1.58250  -0.84952
9
Generated by autodE on: 2023-07-19. E = -1539.029402 Ha
Pt   -0.48214  -0.63158   0.39599
Cl    0.18996   0.02949   2.52034
Cl   -2.36003  -1.71620   1.33890
Cl   -1.15406  -1.27936  -1.73514
C     0.60104   0.90342  -0.51594
H     1.25893   1.41439   0.18638
H     0.96790  -0.83882   0.05915
H     1.17429   0.60388  -1.39522
H    -0.18357   1.58260  -0.84737
9
Generated by autodE on: 2023-07-19. E = -1539.029396 Ha
Pt   -0.48344  -0.63196   0.39561
Cl    0.18946   0.02863   2.52009
Cl   -2.36261  -1.71432   1.33721
Cl   -1.15454  -1.27939  -1.73613
C     0.60174   0.90236  -0.51502
H     1.26036   1.41106   0.18792
H     0.96661  -0.83864   0.05762
H     1.17412   0.60335  -1.39491
H    -0.18235   1.58288  -0.84538
9
Generated by autodE on: 2023-07-19. E = -1539.029390 Ha
Pt   -0.48462  -0.63245   0.39486
Cl    0.18807   0.02838   2.51922
Cl   -2.36531  -1.71252   1.33634
Cl   -1.15441  -1.27950  -1.73737
C     0.60216   0.90117  -0.51429
H     1.26188   1.40810   0.18920
H     0.96508  -0.83833   0.05584
H     1.17370   0.60247  -1.39493
H    -0.18128   1.58308  -0.84284
9
Generated by autodE on: 2023-07-19. E = -1539.029282 Ha
Pt   -0.48868  -0.63272   0.39494
Cl    0.18521   0.02559   2.52004
Cl   -2.36968  -1.71074   1.33439
Cl   -1.15787  -1.27787  -1.73840
C     0.60484   0.89886  -0.51400
H     1.26543   1.40340   0.19005
H     0.96261  -0.83312   0.05357
H     1.17530   0.60054  -1.39527
H    -0.17809   1.58197  -0.84141
9
Generated by autodE on: 2023-07-19. E = -1539.029069 Ha
Pt   -0.49244  -0.63328   0.39516
Cl    0.18086   0.02480   2.52040
Cl   -2.37270  -1.71154   1.33421
Cl   -1.16118  -1.27789  -1.73865
C     0.60864   0.89432  -0.51280
H     1.26950   1.39828   0.19170
H     0.95925  -0.82005   0.04946
H     1.17950   0.59594  -1.39421
H    -0.17369   1.57787  -0.84024
9
Generated by autodE on: 2023-07-19. E = -1539.028844 Ha
Pt   -0.49514  -0.63467   0.39751
Cl    0.17892   0.02404   2.52286
Cl   -2.37282  -1.71171   1.33499
Cl   -1.16281  -1.27834  -1.73723
C     0.61237   0.89092  -0.51269
H     1.27195   1.39474   0.19276
H     0.95913  -0.80574   0.04426
H     1.18350   0.59413  -1.39412
H    -0.17138   1.57261  -0.84017
9
Generated by autodE on: 2023-07-19. E = -1539.028609 Ha
Pt   -0.49968  -0.63671   0.39691
Cl    0.17600   0.02249   2.52166
Cl   -2.37888  -1.71047   1.33388
Cl   -1.16438  -1.28124  -1.73903
C     0.61576   0.88534  -0.51020
H     1.27671   1.38628   0.19581
H     0.95418  -0.79015   0.03549
H     1.18497   0.59066  -1.39381
H    -0.16785   1.56873  -0.83483
9
Generated by autodE on: 2023-07-19. E = -1539.028373 Ha
Pt   -0.50451  -0.63805   0.39831
Cl    0.17212   0.02185   2.52283
Cl   -2.37986  -1.71173   1.33386
Cl   -1.16730  -1.28177  -1.73871
C     0.61933   0.88219  -0.51107
H     1.27942   1.38321   0.19587
H     0.95266  -0.77596   0.03035
H     1.18812   0.59020  -1.39552
H    -0.16611   1.56395  -0.83349
9
Generated by autodE on: 2023-07-19. E = -1539.028161 Ha
Pt   -0.50833  -0.63848   0.39822
Cl    0.16950   0.02293   2.52200
Cl   -2.38363  -1.71026   1.33409
Cl   -1.16791  -1.28285  -1.74000
C     0.62367   0.87799  -0.50881
H     1.28437   1.37578   0.19900
H     0.94833  -0.76145   0.02257
H     1.19081   0.58823  -1.39530
H    -0.16208   1.56122  -0.82916
9
Generated by autodE on: 2023-07-19. E = -1539.027987 Ha
Pt   -0.51330  -0.64062   0.39867
Cl    0.16683   0.02319   2.52135
Cl   -2.38754  -1.70818   1.33275
Cl   -1.16998  -1.28490  -1.74089
C     0.62705   0.87387  -0.50785
H     1.28904   1.36901   0.20144
H     0.94547  -0.75054   0.01494
H     1.19177   0.58789  -1.39672
H    -0.15903   1.55852  -0.82272
9
Generated by autodE on: 2023-07-19. E = -1539.027879 Ha
Pt   -0.51701  -0.64089   0.39744
Cl    0.16465   0.02396   2.51912
Cl   -2.39274  -1.70526   1.33307
Cl   -1.16929  -1.28680  -1.74315
C     0.63042   0.87125  -0.50596
H     1.29363   1.36163   0.20429
H     0.94108  -0.74326   0.00870
H     1.19262   0.58777  -1.39740
H    -0.15629   1.55789  -0.81730
