9
Generated by autodE on: 2023-07-19. E = -1539.048800 Ha
Pt   -1.35217  -1.05373   0.67763
Cl   -0.32334  -0.96830   2.73825
Cl   -2.80942  -2.67395   1.18554
Cl   -2.06848  -0.77739  -1.49724
C     1.30911   1.09625  -0.62102
H     1.43281   2.17689  -0.60740
H     1.24079   0.72779   0.40140
H     2.16509   0.63469  -1.10795
H     0.40561   0.83774  -1.16921
9
Generated by autodE on: 2023-07-19. E = -1538.987295 Ha
Pt   -0.97821  -0.86099   0.53162
Cl   -0.27875  -0.53556   2.72303
Cl   -2.70061  -2.26183   1.17382
Cl   -1.58734  -1.12072  -1.71093
C     1.01420   1.01005  -0.58636
H     1.46379   1.82087  -0.01755
H     1.33943  -0.15678   0.30436
H     1.66769   0.75810  -1.42405
H     0.05979   1.34686  -0.99394
9
Generated by autodE on: 2023-07-19. E = -1538.992381 Ha
Pt   -0.98964  -0.85784   0.53468
Cl   -0.25706  -0.57078   2.72108
Cl   -2.71718  -2.24279   1.17839
Cl   -1.62875  -1.07470  -1.70291
C     1.03138   0.99566  -0.58145
H     1.48956   1.80529  -0.01537
H     1.33690  -0.15915   0.27984
H     1.66622   0.75286  -1.43454
H     0.06840   1.35143  -0.97970
9
Generated by autodE on: 2023-07-19. E = -1538.997501 Ha
Pt   -0.99545  -0.86181   0.53685
Cl   -0.26057  -0.57427   2.72284
Cl   -2.71588  -2.24689   1.17899
Cl   -1.63326  -1.07383  -1.70036
C     1.04047   0.98825  -0.57693
H     1.48966   1.81019  -0.01853
H     1.33288  -0.13816   0.27306
H     1.67135   0.75278  -1.43448
H     0.07059   1.34368  -0.98144
9
Generated by autodE on: 2023-07-19. E = -1539.002551 Ha
Pt   -1.00140  -0.86575   0.53906
Cl   -0.26402  -0.57753   2.72452
Cl   -2.71461  -2.25103   1.17970
Cl   -1.63757  -1.07316  -1.69784
C     1.04877   0.98124  -0.57241
H     1.48971   1.81490  -0.02178
H     1.32890  -0.11692   0.26584
H     1.67650   0.75268  -1.43439
H     0.07349   1.33551  -0.98270
9
Generated by autodE on: 2023-07-19. E = -1539.008592 Ha
Pt   -1.00200  -0.86839   0.53875
Cl   -0.26383  -0.57428   2.72328
Cl   -2.71023  -2.24821   1.17904
Cl   -1.63347  -1.07538  -1.69719
C     1.05311   0.97111  -0.56388
H     1.48807   1.81348  -0.02124
H     1.31814  -0.10034   0.25205
H     1.67506   0.75251  -1.43341
H     0.07481   1.32943  -0.97740
9
Generated by autodE on: 2023-07-19. E = -1539.014379 Ha
Pt   -1.00240  -0.87061   0.53849
Cl   -0.26392  -0.57007   2.72205
Cl   -2.70613  -2.24522   1.17873
Cl   -1.62891  -1.07827  -1.69658
C     1.05674   0.96132  -0.55601
H     1.48647   1.81180  -0.02082
H     1.30732  -0.08356   0.23825
H     1.67371   0.75189  -1.43220
H     0.07676   1.32267  -0.97190
9
Generated by autodE on: 2023-07-19. E = -1539.019834 Ha
Pt   -1.00264  -0.87261   0.53817
Cl   -0.26389  -0.56569   2.72071
Cl   -2.70216  -2.24224   1.17849
Cl   -1.62420  -1.08124  -1.69607
C     1.05984   0.95216  -0.54869
H     1.48494   1.80976  -0.02021
H     1.29641  -0.06680   0.22425
H     1.67225   0.75113  -1.43082
H     0.07907   1.31547  -0.96582
9
Generated by autodE on: 2023-07-19. E = -1539.024871 Ha
Pt   -1.00275  -0.87443   0.53782
Cl   -0.26374  -0.56114   2.71922
Cl   -2.69830  -2.23925   1.17835
Cl   -1.61934  -1.08427  -1.69564
C     1.06253   0.94386  -0.54207
H     1.48349   1.80735  -0.01940
H     1.28531  -0.05015   0.21012
H     1.67070   0.75023  -1.42925
H     0.08165   1.30775  -0.95912
9
Generated by autodE on: 2023-07-19. E = -1539.027286 Ha
Pt   -0.99776  -0.87382   0.53567
Cl   -0.26135  -0.55278   2.71644
Cl   -2.69370  -2.23302   1.17759
Cl   -1.60974  -1.08929  -1.69688
C     1.06002   0.93900  -0.53737
H     1.48097   1.80185  -0.01629
H     1.27514  -0.04690   0.20015
H     1.66496   0.74945  -1.42760
H     0.08115   1.30548  -0.95169
9
Generated by autodE on: 2023-07-19. E = -1539.028286 Ha
Pt   -0.98970  -0.87177   0.53241
Cl   -0.25707  -0.54338   2.71286
Cl   -2.68842  -2.22508   1.17623
Cl   -1.59814  -1.09451  -1.69908
C     1.05449   0.93573  -0.53359
H     1.47798   1.79456  -0.01146
H     1.26564  -0.05165   0.19253
H     1.65651   0.74902  -1.42608
H     0.07848   1.30704  -0.94381
9
Generated by autodE on: 2023-07-19. E = -1539.029213 Ha
Pt   -0.98174  -0.86934   0.52915
Cl   -0.25215  -0.53479   2.70923
Cl   -2.68327  -2.21660   1.17490
Cl   -1.58746  -1.09852  -1.70120
C     1.04903   0.93218  -0.53002
H     1.47557   1.78676  -0.00626
H     1.25616  -0.05684   0.18474
H     1.64787   0.74825  -1.42476
H     0.07575   1.30888  -0.93575
9
Generated by autodE on: 2023-07-19. E = -1539.030067 Ha
Pt   -0.97370  -0.86672   0.52598
Cl   -0.24679  -0.52638   2.70566
Cl   -2.67784  -2.20806   1.17378
Cl   -1.57716  -1.10213  -1.70323
C     1.04348   0.92857  -0.52675
H     1.47322   1.77880  -0.00093
H     1.24669  -0.06213   0.17697
H     1.63906   0.74720  -1.42358
H     0.07278   1.31082  -0.92787
9
Generated by autodE on: 2023-07-19. E = -1539.030845 Ha
Pt   -0.96556  -0.86393   0.52295
Cl   -0.24090  -0.51804   2.70215
Cl   -2.67214  -2.19950   1.17303
Cl   -1.56722  -1.10534  -1.70514
C     1.03779   0.92493  -0.52379
H     1.47089   1.77071   0.00445
H     1.23724  -0.06755   0.16920
H     1.63007   0.74586  -1.42259
H     0.06956   1.31283  -0.92022
9
Generated by autodE on: 2023-07-19. E = -1539.031544 Ha
Pt   -0.95723  -0.86105   0.52009
Cl   -0.23431  -0.50970   2.69870
Cl   -2.66598  -2.19122   1.17283
Cl   -1.55759  -1.10831  -1.70686
C     1.03186   0.92138  -0.52118
H     1.46839   1.76267   0.00980
H     1.22779  -0.07307   0.16140
H     1.62083   0.74437  -1.42185
H     0.06594   1.31490  -0.91286
9
Generated by autodE on: 2023-07-19. E = -1539.032164 Ha
Pt   -0.94866  -0.85813   0.51748
Cl   -0.22703  -0.50115   2.69532
Cl   -2.65926  -2.18325   1.17333
Cl   -1.54820  -1.11126  -1.70834
C     1.02566   0.91795  -0.51897
H     1.46561   1.75479   0.01498
H     1.21833  -0.07871   0.15360
H     1.61136   0.74279  -1.42139
H     0.06189   1.31695  -0.90591
9
Generated by autodE on: 2023-07-19. E = -1539.032706 Ha
Pt   -0.93979  -0.85516   0.51508
Cl   -0.21909  -0.49217   2.69207
Cl   -2.65187  -2.17571   1.17466
Cl   -1.53895  -1.11450  -1.70950
C     1.01913   0.91470  -0.51718
H     1.46240   1.74721   0.01986
H     1.20888  -0.08441   0.14583
H     1.60167   0.74116  -1.42123
H     0.05731   1.31888  -0.89946
9
Generated by autodE on: 2023-07-19. E = -1539.033175 Ha
Pt   -0.93070  -0.85207   0.51301
Cl   -0.21056  -0.48272   2.68888
Cl   -2.64405  -2.16826   1.17683
Cl   -1.52998  -1.11792  -1.71034
C     1.01239   0.91152  -0.51582
H     1.45896   1.73978   0.02440
H     1.19940  -0.09034   0.13809
H     1.59187   0.73934  -1.42138
H     0.05237   1.32068  -0.89354
9
Generated by autodE on: 2023-07-19. E = -1539.033576 Ha
Pt   -0.92135  -0.84893   0.51113
Cl   -0.20168  -0.47256   2.68583
Cl   -2.63564  -2.16113   1.17979
Cl   -1.52097  -1.12193  -1.71087
C     1.00535   0.90851  -0.51483
H     1.45502   1.73272   0.02859
H     1.18991  -0.09634   0.13053
H     1.58203   0.73741  -1.42172
H     0.04699   1.32227  -0.88828
9
Generated by autodE on: 2023-07-19. E = -1539.033915 Ha
Pt   -0.91183  -0.84548   0.50972
Cl   -0.19216  -0.46143   2.68295
Cl   -2.62696  -2.15358   1.18410
Cl   -1.51244  -1.12637  -1.71077
C     0.99816   0.90538  -0.51443
H     1.45098   1.72569   0.03206
H     1.18043  -0.10266   0.12295
H     1.57214   0.73492  -1.42253
H     0.04135   1.32354  -0.88382
9
Generated by autodE on: 2023-07-19. E = -1539.034200 Ha
Pt   -0.90189  -0.84188   0.50900
Cl   -0.18157  -0.44887   2.68033
Cl   -2.61732  -2.14605   1.19047
Cl   -1.50430  -1.13198  -1.70963
C     0.99051   0.90231  -0.51488
H     1.44637   1.71909   0.03430
H     1.17099  -0.10895   0.11525
H     1.56185   0.73201  -1.42413
H     0.03502   1.32435  -0.88042
9
Generated by autodE on: 2023-07-19. E = -1539.034438 Ha
Pt   -0.89174  -0.83789   0.50892
Cl   -0.17045  -0.43455   2.67799
Cl   -2.60732  -2.13791   1.19872
Cl   -1.49645  -1.13873  -1.70759
C     0.98265   0.89904  -0.51613
H     1.44149   1.71265   0.03533
H     1.16161  -0.11539   0.10762
H     1.55148   0.72825  -1.42633
H     0.02838   1.32459  -0.87820
9
Generated by autodE on: 2023-07-19. E = -1539.034635 Ha
Pt   -0.88127  -0.83375   0.50945
Cl   -0.15827  -0.41912   2.67581
Cl   -2.59666  -2.12944   1.20880
Cl   -1.48918  -1.14625  -1.70454
C     0.97445   0.89572  -0.51812
H     1.43635   1.70638   0.03525
H     1.15228  -0.12195   0.09984
H     1.54073   0.72401  -1.42932
H     0.02123   1.32448  -0.87684
9
Generated by autodE on: 2023-07-19. E = -1539.034795 Ha
Pt   -0.87071  -0.82929   0.51021
Cl   -0.14649  -0.40229   2.67374
Cl   -2.58596  -2.12059   1.21955
Cl   -1.48154  -1.15485  -1.70121
C     0.96617   0.89228  -0.52044
H     1.43090   1.70030   0.03463
H     1.14303  -0.12858   0.09254
H     1.53029   0.71917  -1.43230
H     0.01401   1.32392  -0.87643
9
Generated by autodE on: 2023-07-19. E = -1539.034924 Ha
Pt   -0.86021  -0.82455   0.51115
Cl   -0.13456  -0.38486   2.67172
Cl   -2.57554  -2.11090   1.23097
Cl   -1.47429  -1.16350  -1.69753
C     0.95793   0.88862  -0.52302
H     1.42567   1.69397   0.03361
H     1.13379  -0.13562   0.08543
H     1.52000   0.71374  -1.43549
H     0.00690   1.32320  -0.87651
9
Generated by autodE on: 2023-07-19. E = -1539.035020 Ha
Pt   -0.84931  -0.81987   0.51235
Cl   -0.12174  -0.36735   2.66962
Cl   -2.56429  -2.10160   1.24327
Cl   -1.46734  -1.17253  -1.69329
C     0.94926   0.88516  -0.52593
H     1.42003   1.68792   0.03215
H     1.12473  -0.14264   0.07823
H     1.50919   0.70854  -1.43913
H    -0.00083   1.32250  -0.87687
9
Generated by autodE on: 2023-07-19. E = -1539.035091 Ha
Pt   -0.83867  -0.81482   0.51342
Cl   -0.11009  -0.34880   2.66758
Cl   -2.55388  -2.09136   1.25525
Cl   -1.45989  -1.18203  -1.68930
C     0.94087   0.88140  -0.52881
H     1.41459   1.68165   0.03067
H     1.11568  -0.14999   0.07182
H     1.49914   0.70256  -1.44234
H    -0.00804   1.32152  -0.87789
9
Generated by autodE on: 2023-07-19. E = -1539.035135 Ha
Pt   -0.82777  -0.80985   0.51454
Cl   -0.09739  -0.33102   2.66535
Cl   -2.54298  -2.08133   1.26765
Cl   -1.45314  -1.19102  -1.68499
C     0.93218   0.87783  -0.53180
H     1.40915   1.67532   0.02911
H     1.10678  -0.15758   0.06519
H     1.48855   0.69696  -1.44594
H    -0.01566   1.32087  -0.87868
9
Generated by autodE on: 2023-07-19. E = -1539.035155 Ha
Pt   -0.81691  -0.80462   0.51572
Cl   -0.08438  -0.31326   2.66306
Cl   -2.53238  -2.07059   1.28040
Cl   -1.44695  -1.19967  -1.68047
C     0.92355   0.87406  -0.53491
H     1.40411   1.66863   0.02737
H     1.09796  -0.16562   0.05868
H     1.47791   0.69100  -1.44972
H    -0.02313   1.32033  -0.87958
9
Generated by autodE on: 2023-07-19. E = -1539.035152 Ha
Pt   -0.80602  -0.79935   0.51676
Cl   -0.07197  -0.29512   2.66069
Cl   -2.52187  -2.05981   1.29286
Cl   -1.44027  -1.20874  -1.67607
C     0.91486   0.87035  -0.53798
H     1.39888   1.66202   0.02567
H     1.08925  -0.17374   0.05270
H     1.46751   0.68495  -1.45324
H    -0.03057   1.31974  -0.88082
9
Generated by autodE on: 2023-07-19. E = -1539.035126 Ha
Pt   -0.79503  -0.79404   0.51781
Cl   -0.05751  -0.27895   2.65805
Cl   -2.51127  -2.04865   1.30584
Cl   -1.43561  -1.21589  -1.67135
C     0.90605   0.86660  -0.54113
H     1.39452   1.65471   0.02401
H     1.08063  -0.18262   0.04595
H     1.45621   0.67921  -1.45748
H    -0.03815   1.31995  -0.88119
9
Generated by autodE on: 2023-07-19. E = -1539.035081 Ha
Pt   -0.78423  -0.78860   0.51853
Cl   -0.04573  -0.26091   2.65546
Cl   -2.50129  -2.03739   1.31765
Cl   -1.42875  -1.22481  -1.66722
C     0.89742   0.86287  -0.54401
H     1.38949   1.64784   0.02257
H     1.07214  -0.19125   0.04074
H     1.44614   0.67298  -1.46062
H    -0.04528   1.31960  -0.88263
9
Generated by autodE on: 2023-07-19. E = -1539.035013 Ha
Pt   -0.77324  -0.78327   0.51919
Cl   -0.03098  -0.24600   2.65251
Cl   -2.49094  -2.02607   1.33002
Cl   -1.42467  -1.23090  -1.66279
C     0.88855   0.85925  -0.54687
H     1.38554   1.64013   0.02139
H     1.06372  -0.20077   0.03429
H     1.43469   0.66754  -1.46472
H    -0.05273   1.32049  -0.88257
9
Generated by autodE on: 2023-07-19. E = -1539.034925 Ha
Pt   -0.76256  -0.77771   0.51953
Cl   -0.01826  -0.23001   2.64957
Cl   -2.48154  -2.01421   1.34128
Cl   -1.41926  -1.23778  -1.65890
C     0.88001   0.85552  -0.54945
H     1.38150   1.63242   0.02054
H     1.05541  -0.21041   0.02902
H     1.42429   0.66154  -1.46792
H    -0.05951   1.32114  -0.88318
9
Generated by autodE on: 2023-07-19. E = -1539.034818 Ha
Pt   -0.75181  -0.77240   0.51947
Cl   -0.00540  -0.21532   2.64642
Cl   -2.47203  -2.00295   1.35169
Cl   -1.41396  -1.24388  -1.65550
C     0.87133   0.85212  -0.55163
H     1.37748   1.62472   0.02034
H     1.04724  -0.22022   0.02383
H     1.41372   0.65627  -1.47088
H    -0.06639   1.32236  -0.88323
9
Generated by autodE on: 2023-07-19. E = -1539.034686 Ha
Pt   -0.74150  -0.76706   0.51869
Cl    0.00681  -0.20247   2.64305
Cl   -2.46378  -1.99133   1.36022
Cl   -1.40898  -1.24822  -1.65318
C     0.86309   0.84872  -0.55308
H     1.37427   1.61629   0.02144
H     1.03912  -0.23077   0.01893
H     1.40371   0.65124  -1.47310
H    -0.07244   1.32439  -0.88251
9
Generated by autodE on: 2023-07-19. E = -1539.034538 Ha
Pt   -0.73126  -0.76183   0.51762
Cl    0.01798  -0.18939   2.63964
Cl   -2.45571  -1.98008   1.36789
Cl   -1.40307  -1.25304  -1.65130
C     0.85482   0.84552  -0.55427
H     1.37073   1.60812   0.02287
H     1.03115  -0.24126   0.01470
H     1.39410   0.64639  -1.47479
H    -0.07839   1.32641  -0.88200
9
Generated by autodE on: 2023-07-19. E = -1539.034365 Ha
Pt   -0.72119  -0.75665   0.51618
Cl    0.02879  -0.17722   2.63610
Cl   -2.44822  -1.96873   1.37464
Cl   -1.39732  -1.25706  -1.64996
C     0.84668   0.84242  -0.55508
H     1.36755   1.59963   0.02491
H     1.02333  -0.25217   0.01068
H     1.38471   0.64169  -1.47611
H    -0.08397   1.32895  -0.88112
9
Generated by autodE on: 2023-07-19. E = -1539.034169 Ha
Pt   -0.71134  -0.75121   0.51475
Cl    0.04033  -0.16579   2.63248
Cl   -2.44128  -1.95650   1.38160
Cl   -1.39265  -1.26000  -1.64845
C     0.83872   0.83916  -0.55593
H     1.36519   1.59047   0.02689
H     1.01555  -0.26373   0.00653
H     1.37514   0.63671  -1.47766
H    -0.08913   1.33195  -0.87996
9
Generated by autodE on: 2023-07-19. E = -1539.033951 Ha
Pt   -0.70171  -0.74634   0.51222
Cl    0.04933  -0.15563   2.62878
Cl   -2.43493  -1.94592   1.38519
Cl   -1.38588  -1.26271  -1.64891
C     0.83089   0.83661  -0.55556
H     1.36214   1.58186   0.03094
H     1.00804  -0.27508   0.00344
H     1.36672   0.63302  -1.47749
H    -0.09394   1.33550  -0.87832
9
Generated by autodE on: 2023-07-19. E = -1539.033706 Ha
Pt   -0.69277  -0.74169   0.50850
Cl    0.05544  -0.14692   2.62501
Cl   -2.43036  -1.93583   1.38506
Cl   -1.37753  -1.26440  -1.65155
C     0.82369   0.83435  -0.55385
H     1.35923   1.57305   0.03727
H     1.00069  -0.28678   0.00145
H     1.35995   0.62995  -1.47547
H    -0.09763   1.33968  -0.87615
9
Generated by autodE on: 2023-07-19. E = -1539.033430 Ha
Pt   -0.68391  -0.73722   0.50461
Cl    0.06141  -0.13876   2.62121
Cl   -2.42586  -1.92612   1.38439
Cl   -1.36902  -1.26587  -1.65452
C     0.81638   0.83239  -0.55195
H     1.35623   1.56425   0.04392
H     0.99357  -0.29861  -0.00043
H     1.35320   0.62720  -1.47323
H    -0.10129   1.34419  -0.87380
9
Generated by autodE on: 2023-07-19. E = -1539.033128 Ha
Pt   -0.67538  -0.73264   0.50069
Cl    0.06743  -0.13093   2.61740
Cl   -2.42200  -1.91579   1.38360
Cl   -1.36098  -1.26671  -1.65759
C     0.80925   0.83040  -0.55001
H     1.35373   1.55496   0.05070
H     0.98664  -0.31095  -0.00229
H     1.34655   0.62420  -1.47094
H    -0.10453   1.34904  -0.87133
9
Generated by autodE on: 2023-07-19. E = -1539.032810 Ha
Pt   -0.66690  -0.72811   0.49647
Cl    0.07275  -0.12348   2.61358
Cl   -2.41850  -1.90577   1.38197
Cl   -1.35252  -1.26744  -1.66111
C     0.80211   0.82860  -0.54777
H     1.35115   1.54574   0.05790
H     0.97990  -0.32347  -0.00377
H     1.34026   0.62144  -1.46822
H    -0.10755   1.35415  -0.86882
9
Generated by autodE on: 2023-07-19. E = -1539.032471 Ha
Pt   -0.65857  -0.72363   0.49214
Cl    0.07797  -0.11643   2.60974
Cl   -2.41523  -1.89583   1.37997
Cl   -1.34409  -1.26786  -1.66484
C     0.79495   0.82700  -0.54541
H     1.34866   1.53639   0.06532
H     0.97341  -0.33625  -0.00518
H     1.33401   0.61881  -1.46534
H    -0.11041   1.35958  -0.86617
9
Generated by autodE on: 2023-07-19. E = -1539.032108 Ha
Pt   -0.65054  -0.71913   0.48773
Cl    0.08300  -0.10964   2.60588
Cl   -2.41244  -1.88562   1.37767
Cl   -1.33576  -1.26795  -1.66877
C     0.78788   0.82549  -0.54296
H     1.34640   1.52679   0.07291
H     0.96717  -0.34940  -0.00647
H     1.32793   0.61607  -1.46228
H    -0.11297   1.36529  -0.86346
9
Generated by autodE on: 2023-07-19. E = -1539.031725 Ha
Pt   -0.64258  -0.71479   0.48330
Cl    0.08793  -0.10298   2.60202
Cl   -2.40954  -1.87583   1.37519
Cl   -1.32720  -1.26817  -1.67280
C     0.78065   0.82431  -0.54048
H     1.34392   1.51729   0.08058
H     0.96131  -0.36264  -0.00768
H     1.32178   0.61358  -1.45912
H    -0.11562   1.37121  -0.86075
9
Generated by autodE on: 2023-07-19. E = -1539.031322 Ha
Pt   -0.63496  -0.71041   0.47878
Cl    0.09256  -0.09652   2.59814
Cl   -2.40719  -1.86578   1.37235
Cl   -1.31864  -1.26811  -1.67705
C     0.77352   0.82323  -0.53790
H     1.34166   1.50757   0.08845
H     0.95575  -0.37624  -0.00875
H     1.31585   0.61098  -1.45575
H    -0.11795   1.37741  -0.85799
9
Generated by autodE on: 2023-07-19. E = -1539.030903 Ha
Pt   -0.62741  -0.70616   0.47438
Cl    0.09732  -0.08991   2.59425
Cl   -2.40456  -1.85610   1.36973
Cl   -1.30993  -1.26843  -1.68116
C     0.76615   0.82249  -0.53544
H     1.33913   1.49801   0.09613
H     0.95065  -0.38992  -0.00980
H     1.30972   0.60852  -1.45244
H    -0.12050   1.38374  -0.85536
9
Generated by autodE on: 2023-07-19. E = -1539.030473 Ha
Pt   -0.62022  -0.70192   0.46988
Cl    0.10184  -0.08367   2.59032
Cl   -2.40242  -1.84636   1.36671
Cl   -1.30123  -1.26838  -1.68554
C     0.75886   0.82192  -0.53285
H     1.33678   1.48825   0.10409
H     0.94593  -0.40397  -0.01081
H     1.30374   0.60610  -1.44892
H    -0.12280   1.39042  -0.85257
9
Generated by autodE on: 2023-07-19. E = -1539.030035 Ha
Pt   -0.61321  -0.69774   0.46553
Cl    0.10638  -0.07708   2.58639
Cl   -2.40020  -1.83677   1.36396
Cl   -1.29239  -1.26879  -1.68973
C     0.75141   0.82162  -0.53042
H     1.33424   1.47858   0.11178
H     0.94174  -0.41816  -0.01174
H     1.29765   0.60364  -1.44545
H    -0.12520   1.39717  -0.85000
9
Generated by autodE on: 2023-07-19. E = -1539.029596 Ha
Pt   -0.60654  -0.69363   0.46111
Cl    0.11091  -0.07099   2.58239
Cl   -2.39832  -1.82728   1.36098
Cl   -1.28369  -1.26880  -1.69413
C     0.74399   0.82157  -0.52790
H     1.33187   1.46875   0.11971
H     0.93800  -0.43272  -0.01276
H     1.29156   0.60135  -1.44189
H    -0.12748   1.40433  -0.84718
9
Generated by autodE on: 2023-07-19. E = -1539.029274 Ha
Pt   -0.60021  -0.68944   0.45682
Cl    0.11538  -0.06430   2.57837
Cl   -2.39633  -1.81766   1.35815
Cl   -1.27456  -1.26933  -1.69857
C     0.73653   0.82131  -0.52535
H     1.32947   1.45822   0.12788
H     0.93418  -0.44588  -0.01444
H     1.28548   0.59877  -1.43827
H    -0.12979   1.41108  -0.84425
9
Generated by autodE on: 2023-07-19. E = -1539.029055 Ha
Pt   -0.59528  -0.68485   0.45241
Cl    0.11963  -0.05798   2.57414
Cl   -2.39610  -1.80619   1.35481
Cl   -1.26610  -1.26856  -1.70359
C     0.72994   0.82022  -0.52248
H     1.32856   1.44539   0.13710
H     0.93011  -0.45843  -0.01711
H     1.28004   0.59498  -1.43428
H    -0.13082   1.41791  -0.84067
9
Generated by autodE on: 2023-07-19. E = -1539.028826 Ha
Pt   -0.59087  -0.68050   0.44848
Cl    0.12300  -0.04958   2.56995
Cl   -2.39571  -1.79504   1.35203
Cl   -1.25628  -1.26965  -1.70819
C     0.72336   0.81970  -0.51985
H     1.32673   1.43308   0.14579
H     0.92712  -0.47066  -0.01954
H     1.27480   0.59107  -1.43014
H    -0.13199   1.42448  -0.83800
9
Generated by autodE on: 2023-07-19. E = -1539.028596 Ha
Pt   -0.58595  -0.67683   0.44495
Cl    0.12766  -0.04069   2.56540
Cl   -2.39372  -1.78612   1.35104
Cl   -1.24627  -1.27244  -1.71198
C     0.71584   0.81991  -0.51785
H     1.32385   1.42182   0.15370
H     0.92493  -0.48225  -0.02268
H     1.26828   0.58813  -1.42687
H    -0.13472   1.43112  -0.83532
9
Generated by autodE on: 2023-07-19. E = -1539.028358 Ha
Pt   -0.58252  -0.67303   0.44082
Cl    0.13132  -0.03347   2.56057
Cl   -2.39466  -1.77558   1.34832
Cl   -1.23714  -1.27287  -1.71693
C     0.70965   0.81982  -0.51513
H     1.32282   1.40918   0.16314
H     0.92294  -0.49518  -0.02607
H     1.26281   0.58529  -1.42307
H    -0.13576   1.43911  -0.83146
9
Generated by autodE on: 2023-07-19. E = -1539.028152 Ha
Pt   -0.57832  -0.67017   0.43724
Cl    0.13553  -0.02466   2.55562
Cl   -2.39391  -1.76747   1.34767
Cl   -1.22732  -1.27605  -1.72088
C     0.70293   0.82085  -0.51291
H     1.32036   1.39790   0.17110
H     0.92128  -0.50662  -0.02996
H     1.25652   0.58351  -1.42008
H    -0.13768   1.44624  -0.82768
9
Generated by autodE on: 2023-07-19. E = -1539.027975 Ha
Pt   -0.57621  -0.66745   0.43359
Cl    0.13857  -0.01669   2.55033
Cl   -2.39595  -1.75789   1.34615
Cl   -1.21873  -1.27810  -1.72525
C     0.69778   0.82077  -0.51046
H     1.32017   1.38561   0.17990
H     0.91988  -0.51859  -0.03437
H     1.25138   0.58175  -1.41717
H    -0.13821   1.45440  -0.82290
9
Generated by autodE on: 2023-07-19. E = -1539.027874 Ha
Pt   -0.57368  -0.66574   0.42975
Cl    0.14157  -0.00933   2.54482
Cl   -2.39878  -1.74921   1.34558
Cl   -1.21129  -1.28074  -1.72948
C     0.69388   0.82119  -0.50786
H     1.32059   1.37363   0.18790
H     0.91679  -0.52800  -0.03974
H     1.24650   0.58121  -1.41519
H    -0.13772   1.46106  -0.81649
