! EnGrad PBEh-3c
%output 
xyzfile=True 
end 
%scf 
maxiter 250 
end
%output
Print[P_Hirshfeld] = 1
end
% maxcore
4000
*xyz 0 1
Lu   0.18079854  -0.23161083   0.16195955 
C    0.50490491   0.62727201   2.61287014 
C    1.59546335  -0.18923701   2.28336073 
C    2.36517953   0.48821986   1.33168508 
C    1.70269489   1.67041158   0.98758698 
C    0.58661808   1.77830297   1.82802102 
H    2.02306623   2.41380979   0.27577990 
H   -0.04815013   2.64423035   1.91616898 
H   -0.20496386   0.45228165   3.40336610 
H    1.79461724  -1.15343731   2.72350557 
H    3.26451440   0.11636790   0.87167827 
C    0.77320539  -0.13409054  -2.34775275 
C   -0.43032451  -0.85569712  -2.32375005 
C    1.14646272  -2.10982613  -1.29900869 
C    1.76210242  -0.94000111  -1.76456773 
H    0.91926606   0.82384215  -2.82163669 
C   -0.21780909  -2.05192031  -1.63421646 
H   -1.34048038  -0.60816325  -2.84362623 
H    2.79686377  -0.66985078  -1.63154830 
H    1.61271233  -2.92075635  -0.76044081 
H   -0.95477880  -2.82594887  -1.49444010 
C   -2.10804218  -1.48758376   1.18677433 
H   -2.34088474  -1.17045011   2.20630760 
H   -2.10041206  -2.58629521   1.22002617 
H   -2.98236307  -1.27883164   0.56100050 
C   -1.93125418   2.15603180  -1.02879026 
H   -2.32083787   0.72325735   0.20200830 
H   -1.03074103   2.68017294  -1.34310692 
H   -2.59659172   2.88867236  -0.56620368 
H   -2.42084624   1.75084217  -1.91301894 
*
