! EnGrad PBEh-3c
%output 
xyzfile=True 
end 
%scf 
maxiter 250 
end
%output
Print[P_Hirshfeld] = 1
end
% maxcore
4000
*xyz 0 1
Lu   0.07642250   0.05600381  -0.01110032 
C    0.39402842   0.91059833   2.45915671 
C    1.37002086  -0.10003851   2.19724217 
C    2.30298152   0.41502194   1.27586039 
C    1.90692323   1.73053378   0.92232430 
C    0.73956436   2.04377729   1.66852463 
H    2.50361841   2.42358419   0.35528091 
H    0.19588219   2.97206146   1.63681456 
H   -0.39636301   0.85441853   3.15935566 
H    1.41558462  -1.05534284   2.68946127 
H    3.21680620  -0.07547485   0.99031650 
C    1.00174634  -0.07050628  -2.51081100 
C   -0.28693009  -0.65350117  -2.56523948 
C    1.03566882  -1.96816407  -1.23060520 
C    1.81893730  -0.89456940  -1.70164820 
H    1.34355233   0.76772531  -3.09675069 
C   -0.27815037  -1.82891367  -1.76574855 
H   -1.13534886  -0.25832345  -3.10092920 
H    2.88543395  -0.81665563  -1.59528602 
H    1.38844692  -2.80975667  -0.65644150 
H   -1.08197800  -2.50613380  -1.62495416 
C   -2.39721928  -1.39973917   1.21203117 
H   -2.22283029  -1.38921257   2.29587764 
H   -2.02232201  -2.39552651   0.92605597 
H   -3.50609933  -1.37024701   1.09245937 
C   -1.95867194   1.47391024  -0.58334279 
H   -1.95345112   0.32887920   0.04123804 
H   -1.22304718   2.15377264  -1.06190319 
H   -2.48993024   2.16719821   0.06004513 
H   -2.63160134   1.30081003  -1.41221840 
*
