! EnGrad PBEh-3c
%output 
xyzfile=True 
end 
%scf 
maxiter 250 
end
%output
Print[P_Hirshfeld] = 1
end
% maxcore
4000
*xyz 0 1
Lu   0.17801568   0.06850047  -0.02880592 
C    0.41317410   0.95482479   2.35542402 
C    1.29690875  -0.06522759   2.16814308 
C    2.28989559   0.41507531   1.27917395 
C    1.90573453   1.72178841   0.89382632 
C    0.73967330   2.02431339   1.60847973 
H    2.56727344   2.39512114   0.37764457 
H    0.26852334   3.01405753   1.59719043 
H   -0.47349001   0.90428417   3.08230736 
H    1.35526935  -1.01486614   2.67057305 
H    3.15656771  -0.09706983   0.98974548 
C    1.02023318  -0.04065238  -2.50003917 
C   -0.26363724  -0.61614006  -2.53877071 
C    0.99029547  -1.92992681  -1.23180233 
C    1.83014506  -0.89154616  -1.70322345 
H    1.42050345   0.72978102  -3.13346129 
C   -0.25283461  -1.72558730  -1.76631954 
H   -1.08201920  -0.20564204  -3.13354792 
H    2.86856175  -0.81351146  -1.56177879 
H    1.34453828  -2.75866480  -0.63909343 
H   -1.12864945  -2.44700150  -1.63152285 
C   -2.42852602  -1.23372330   1.17693667 
H   -2.17969185  -1.31361082   2.23494235 
H   -1.97754721  -2.17796989   0.75387375 
H   -3.52431146  -1.34513023   1.16010293 
C   -1.93510620   1.28618170  -0.50689780 
H   -2.12592344   0.18544925   0.10808881 
H   -1.17079667   1.94823761  -0.96912663 
H   -2.41319126   1.90158754   0.25397614 
H   -2.66373333   1.14398410  -1.29872344 
*
