! EnGrad PBEh-3c
%output 
xyzfile=True 
end 
%scf 
maxiter 250 
end
%output
Print[P_Hirshfeld] = 1
end
% maxcore
4000
*xyz 0 1
Lu   0.10776991   0.05985976  -0.01656353 
C    0.39993598   0.92424477   2.42714913 
C    1.34746152  -0.08929732   2.18826340 
C    2.29894375   0.41503841   1.27688281 
C    1.90655645   1.72783532   0.91353102 
C    0.73959797   2.03777154   1.64999728 
H    2.52325970   2.41480168   0.36218140 
H    0.21829622   2.98501969   1.62458821 
H   -0.42016118   0.86980499   3.13558177 
H    1.39697385  -1.04285342   2.68363315 
H    3.19821912  -0.08213816   0.99014031 
C    1.00745060  -0.06129461  -2.50748726 
C   -0.27974289  -0.64197309  -2.55707232 
C    1.02166850  -1.95636565  -1.23097458 
C    1.82239555  -0.89363656  -1.70213425 
H    1.36729623   0.75601728  -3.10807805 
C   -0.27033898  -1.79703147  -1.76592474 
H   -1.11889356  -0.24206817  -3.11099397 
H    2.88022789  -0.81568547  -1.58494709 
H    1.37489855  -2.79399186  -0.65108861 
H   -1.09637886  -2.48788804  -1.62698098 
C   -2.40687923  -1.34851361   1.20120247 
H   -2.20951957  -1.36588503   2.27707556 
H   -2.00850638  -2.32839762   0.87292773 
H   -3.51171883  -1.36249702   1.11333135 
C   -1.95140054   1.41598505  -0.55975506 
H   -2.00666887   0.28462271   0.06186540 
H   -1.20692485   2.09035311  -1.03327622 
H   -2.46625180   2.08524185   0.11988414 
H   -2.64151593   1.25242010  -1.37719859 
*
