! EnGrad PBEh-3c
%output 
xyzfile=True 
end 
%scf 
maxiter 250 
end
%output
Print[P_Hirshfeld] = 1
end
% maxcore
4000
*xyz 0 1
Lu   0.16539887   0.04964922  -0.01497817 
C    0.38425964   0.92570503   2.40135209 
C    1.33344297  -0.08012530   2.17218334 
C    2.28447517   0.42785436   1.28506752 
C    1.89975920   1.70785965   0.90570889 
C    0.72704555   2.02788003   1.60949590 
H    2.52780508   2.39883186   0.36439418 
H    0.24719735   2.98307405   1.61935946 
H   -0.44446162   0.87235290   3.08688314 
H    1.38348829  -1.02644472   2.67478261 
H    3.17277210  -0.08824029   0.97535147 
C    1.01235406  -0.05666831  -2.48394019 
C   -0.27943335  -0.61193849  -2.53107647 
C    1.01917832  -1.94239716  -1.23274925 
C    1.80909036  -0.89321490  -1.71368968 
H    1.38520368   0.74204302  -3.11231753 
C   -0.28052124  -1.77575529  -1.75051676 
H   -1.09824020  -0.23569856  -3.10945525 
H    2.87519392  -0.79952442  -1.56192303 
H    1.36122638  -2.76936647  -0.64582191 
H   -1.10454584  -2.45856287  -1.62198255 
C   -2.38498984  -1.24832479   1.16648495 
H   -2.18755694  -1.28949860   2.22988396 
H   -1.99295837  -2.18578079   0.77759387 
H   -3.48266392  -1.33207707   1.11183475 
C   -1.94791158   1.33690353  -0.53680705 
H   -2.13927754   0.21687437   0.11999821 
H   -1.15151889   1.98502353  -0.98906055 
H   -2.42123923   1.96063929   0.20606768 
H   -2.64773988   1.17788996  -1.33976619 
*
