! EnGrad PBEh-3c
%output 
xyzfile=True 
end 
%scf 
maxiter 250 
end
%output
Print[P_Hirshfeld] = 1
end
% maxcore
4000
*xyz 0 1
Lu   0.04200391  -0.10921606   0.11703313 
C    0.48783412   0.73372059   2.59109886 
C    1.53131293  -0.16075828   2.27487869 
C    2.34655176   0.44329444   1.29906204 
C    1.80089846   1.71359308   1.01424348 
C    0.62072414   1.86590879   1.77951184 
H    2.17419504   2.43713693   0.27595824 
H   -0.00364666   2.75979271   1.82297954 
H   -0.26985456   0.57707122   3.36053629 
H    1.68144049  -1.14838723   2.72124562 
H    3.29733061   0.04329286   0.90294307 
C    0.85782145  -0.13796165  -2.44241045 
C   -0.39655242  -0.79575876  -2.39771127 
C    1.10693238  -2.07482373  -1.26413035 
C    1.78591543  -0.92877897  -1.73982572 
H    1.04462152   0.83738417  -2.90572283 
C   -0.22476890  -2.00754238  -1.71575712 
H   -1.29519837  -0.49097867  -2.92593974 
H    2.85580128  -0.71882326  -1.62671021 
H    1.55338822  -2.90821616  -0.72239008 
H   -1.00139705  -2.74156457  -1.53237223 
C   -2.15967138  -1.49765506   1.19782770 
H   -2.32037916  -1.26486832   2.26746125 
H   -2.10895907  -2.63134217   1.16949911 
H   -3.13811823  -1.32266310   0.73100629 
C   -2.03848927   1.92675770  -0.85109676 
H   -2.05761639   0.67402804   0.07469961 
H   -1.08285317   2.55558715  -1.26551993 
H   -2.59619385   2.74576740  -0.39151869 
H   -2.49476809   1.63257411  -1.78792096 
*
