! EnGrad PBEh-3c
%output 
xyzfile=True 
end 
%scf 
maxiter 250 
end
%output
Print[P_Hirshfeld] = 1
end
% maxcore
4000
*xyz 0 1
Lu   0.04255731  -0.10287013   0.10883454 
C    0.48624658   0.73681441   2.58065549 
C    1.52483351  -0.15109679   2.27012346 
C    2.33604696   0.45028400   1.30300945 
C    1.80259213   1.70647036   1.01084243 
C    0.63739251   1.87127282   1.77666241 
H    2.18882839   2.43766570   0.27952119 
H    0.00228280   2.77205825   1.81514196 
H   -0.27527259   0.58962053   3.35422969 
H    1.66920254  -1.14685212   2.72096764 
H    3.29624156   0.03694260   0.90666227 
C    0.86269594  -0.14004870  -2.44051603 
C   -0.38421201  -0.78889464  -2.40777701 
C    1.10408867  -2.06423603  -1.26946746 
C    1.77985620  -0.92908032  -1.73900180 
H    1.05724720   0.83515968  -2.91473555 
C   -0.22525854  -1.99765132  -1.71373343 
H   -1.29046656  -0.48137630  -2.93487384 
H    2.85876630  -0.72351963  -1.62572371 
H    1.54706729  -2.90728263  -0.71733057 
H   -1.00560302  -2.73307744  -1.53720583 
C   -2.17452307  -1.50145034   1.20189574 
H   -2.31531232  -1.27407801   2.26947791 
H   -2.10628349  -2.62152672   1.16251775 
H   -3.15398873  -1.32423860   0.74568459 
C   -1.99131202   1.91433181  -0.84365243 
H   -2.05031447   0.66436475   0.06951041 
H   -1.11404864   2.52875712  -1.25020420 
H   -2.60216767   2.73123432  -0.36962244 
H   -2.50850873   1.61809169  -1.77979112 
*
