! EnGrad PBEh-3c
%output 
xyzfile=True 
end 
%scf 
maxiter 250 
end
%output
Print[P_Hirshfeld] = 1
end
% maxcore
4000
*xyz 0 1
Lu   0.01787917  -0.06921061   0.08849486 
C    0.47128326   0.76340844   2.56915364 
C    1.50334070  -0.14633897   2.26834437 
C    2.33726880   0.43930508   1.29478690 
C    1.82684097   1.71852353   1.00172789 
C    0.65489433   1.90659567   1.76450609 
H    2.23748743   2.43935047   0.28796609 
H    0.02461949   2.80605514   1.78592367 
H   -0.29236737   0.63211441   3.33291258 
H    1.62951346  -1.13777986   2.71727753 
H    3.29303525   0.01743492   0.92079317 
C    0.88763778  -0.13071187  -2.46289687 
C   -0.37137399  -0.76870812  -2.43818789 
C    1.09490828  -2.05589857  -1.26176246 
C    1.79187286  -0.92379882  -1.73130942 
H    1.09898743   0.82986583  -2.94183501 
C   -0.23336807  -1.97724029  -1.72733095 
H   -1.27078825  -0.44594834  -2.96188341 
H    2.86810651  -0.74053914  -1.62390269 
H    1.52414380  -2.89770558  -0.70629701 
H   -1.01825927  -2.70213286  -1.55175117 
C   -2.20209898  -1.50643855   1.20864588 
H   -2.30461286  -1.30417830   2.28519163 
H   -2.10395358  -2.61561958   1.14171375 
H   -3.21178769  -1.33455298   0.79871534 
C   -1.97983695   1.85517186  -0.80092854 
H   -1.99077931   0.63177125   0.04467336 
H   -1.15187041   2.47545421  -1.21988403 
H   -2.59851224   2.67024487  -0.31066378 
H   -2.53339944   1.57745497  -1.73316711 
*
