! EnGrad PBEh-3c
%output 
xyzfile=True 
end 
%scf 
maxiter 250 
end
%output
Print[P_Hirshfeld] = 1
end
% maxcore
4000
*xyz 0 1
Lu   0.00281737   0.04721991   0.00402256 
C    0.40855104   0.88034647   2.49329742 
C    1.40722564  -0.11570551   2.22750490 
C    2.32166670   0.40778517   1.27450338 
C    1.90258903   1.74014573   0.94571827 
C    0.72990260   2.03364294   1.70396397 
H    2.44921970   2.43706181   0.33548257 
H    0.14543701   2.94373500   1.66636049 
H   -0.36973646   0.81052235   3.21538666 
H    1.46044743  -1.08280755   2.69858170 
H    3.24906379  -0.05767623   0.98086642 
C    0.98410602  -0.08739967  -2.51961551 
C   -0.30660245  -0.68273406  -2.55552119 
C    1.05293244  -1.99854410  -1.23582015 
C    1.82386257  -0.90105214  -1.70157386 
H    1.28692689   0.79127339  -3.06435310 
C   -0.26795376  -1.86936111  -1.76594665 
H   -1.17398441  -0.29638223  -3.07583882 
H    2.89000612  -0.80766198  -1.60981145 
H    1.42088934  -2.84036010  -0.66472255 
H   -1.06895689  -2.55633749  -1.61211404 
C   -2.36394317  -1.45922901   1.22323311 
H   -2.24637990  -1.40325622   2.31871646 
H   -2.05374497  -2.51060388   1.00843161 
H   -3.45746681  -1.37175413   1.03208737 
C   -1.96917572   1.58489163  -0.63423676 
H   -1.87103652   0.40841445   0.01779210 
H   -1.23954602   2.25294329  -1.10691303 
H   -2.53063208   2.32137190  -0.04671944 
H   -2.61211927   1.38563752  -1.49188938 
*
