! EnGrad PBEh-3c
%output 
xyzfile=True 
end 
%scf 
maxiter 250 
end
%output
Print[P_Hirshfeld] = 1
end
% maxcore
4000
*xyz 0 1
Lu   0.10175062   0.06080313  -0.01988816 
C    0.40713087   0.92769047   2.42965434 
C    1.34593173  -0.09026209   2.18880609 
C    2.30057424   0.41569579   1.27264347 
C    1.90648506   1.72784632   0.91308000 
C    0.74847903   2.04990973   1.66350788 
H    2.53590371   2.42226048   0.36392042 
H    0.21646311   2.99124320   1.62037452 
H   -0.41581554   0.87821229   3.14849397 
H    1.39360568  -1.04569425   2.68700494 
H    3.20426385  -0.08403619   1.00016373 
C    1.01087281  -0.06427106  -2.50958487 
C   -0.27722962  -0.65068362  -2.57637460 
C    1.02169822  -1.95860220  -1.22765065 
C    1.81932587  -0.88888672  -1.69921714 
H    1.37207470   0.75985487  -3.11553361 
C   -0.26596271  -1.79660295  -1.77192234 
H   -1.11997118  -0.23658519  -3.11684642 
H    2.88485621  -0.82633870  -1.59296993 
H    1.37389624  -2.79875446  -0.65275332 
H   -1.09572478  -2.49143870  -1.63174529 
C   -2.42672695  -1.39067065   1.21891134 
H   -2.21345258  -1.40158847   2.29004158 
H   -2.00659921  -2.36677788   0.90380439 
H   -3.54111556  -1.37616999   1.12658181 
C   -1.95383921   1.43425897  -0.56040810 
H   -1.96708967   0.29870781   0.04193324 
H   -1.22752612   2.12445985  -1.04806785 
H   -2.47730638   2.10983952   0.09788826 
H   -2.64151157   1.27150159  -1.37583176 
*
