! EnGrad PBEh-3c
%output 
xyzfile=True 
end 
%scf 
maxiter 250 
end
%output
Print[P_Hirshfeld] = 1
end
% maxcore
4000
*xyz 0 1
Lu   0.03360742   0.05144728  -0.00341894 
C    0.40810905   0.89508089   2.47349040 
C    1.38814973  -0.10778700   2.21546104 
C    2.31510230   0.41024712   1.27392454 
C    1.90380155   1.73631790   0.93556057 
C    0.73568396   2.03870550   1.69137321 
H    2.47619753   2.43245533   0.34433301 
H    0.16754178   2.95852052   1.65204872 
H   -0.38407721   0.83158884   3.19456829 
H    1.43964492  -1.07125713   2.69497878 
H    3.23512114  -0.06587999   0.98687214 
C    0.99243639  -0.08020158  -2.51649377 
C   -0.29746103  -0.67275931  -2.56201120 
C    1.04321172  -1.98611336  -1.23327764 
C    1.82245066  -0.89726602  -1.70084040 
H    1.31342662   0.78149531  -3.08028152 
C   -0.26733410  -1.84671729  -1.76780641 
H   -1.15717439  -0.27777217  -3.08860122 
H    2.88840336  -0.81347456  -1.60457003 
H    1.40626413  -2.82741158  -0.66099748 
H   -1.07728761  -2.53613966  -1.61822368 
C   -2.38348276  -1.43789225   1.22188809 
H   -2.23613225  -1.40273718   2.30979225 
H   -2.03907225  -2.46584230   0.97586948 
H   -3.48350001  -1.37312844   1.06149596 
C   -1.96440269   1.53801168  -0.61125977 
H   -1.90093022   0.37427151   0.02530531 
H   -1.23580518   2.21295663  -1.08859921 
H   -2.51403603   2.25553871  -0.00171458 
H   -2.62126675   1.35011609  -1.45576988 
*
