27
autodE path point 0. E = -2061.545669037343 charge = -1 mult = 1 
Pd   -2.44659  -1.63153   0.80274
Cl   -4.22706  -2.91186   0.21375
Cl   -1.45858  -3.37397   1.98667
Cl   -3.29440   0.23608  -0.27989
N    -0.89211  -0.34937   1.43289
C    -1.13275   0.12091   2.64055
C    -0.64559   1.34875   3.08813
C     0.07284   2.11701   2.21172
C    -0.05529   0.31409   0.60825
C     0.38803   1.60936   0.94569
H     0.41138   3.10960   2.48430
H    -1.76317  -0.48641   3.27593
H    -0.88378   1.68983   4.08535
C     0.42302  -0.29522  -0.61300
C     1.11689   2.38290  -0.00745
C     1.42729   1.87043  -1.21530
C     1.12571   0.51081  -1.53579
H     1.39438   3.39699   0.25347
H     1.95329   2.46988  -1.94848
C     0.30207  -1.67043  -0.87804
C     1.58287  -0.04969  -2.73988
C     0.78299  -2.19968  -2.05187
C     1.40292  -1.38412  -3.00326
H     2.09782   0.58561  -3.45071
H     1.76277  -1.80931  -3.93149
H    -0.12550  -2.33908  -0.14383
H     0.68054  -3.26158  -2.23046
27
autodE path point 1. E = -2061.499647218944 charge = -1 mult = 1 
Pd   -2.22399  -1.84149   0.81920
Cl   -3.70983  -3.23869  -0.08717
Cl   -0.97448  -4.02883   1.49933
Cl   -3.76417  -0.08917   0.45400
N    -0.93944  -0.20594   1.45784
C    -1.25023   0.36514   2.60452
C    -0.74125   1.59900   3.02375
C     0.08002   2.28588   2.17390
C    -0.06948   0.40236   0.62755
C     0.42884   1.70895   0.94270
H     0.47088   3.26390   2.44666
H    -1.92754  -0.18703   3.23640
H    -1.03453   1.99916   3.98420
C     0.37968  -0.32115  -0.55915
C     1.28287   2.40567   0.03884
C     1.60310   1.82055  -1.13653
C     1.15303   0.48417  -1.45325
H     1.65457   3.39667   0.30481
H     2.25287   2.36456  -1.83085
C     0.13891  -1.68077  -0.85593
C     1.62543  -0.05783  -2.67328
C     0.47297  -2.11711  -2.13058
C     1.23167  -1.32656  -3.00242
H     2.27873   0.52066  -3.33387
H     1.62154  -1.77936  -3.90715
H    -0.21582  -2.63968  -0.20418
H     0.17955  -3.10264  -2.43595
27
autodE path point 2. E = -2061.438983330047 charge = -1 mult = 1 
Pd   -2.13589  -1.76186   0.68521
Cl   -3.54100  -3.27760  -0.17747
Cl   -0.67762  -4.29858   1.25085
Cl   -3.93847  -0.26180   0.76403
N    -0.96810  -0.13525   1.43543
C    -1.28938   0.43830   2.58424
C    -0.76581   1.66962   3.00267
C     0.08113   2.33925   2.16392
C    -0.06966   0.45036   0.61978
C     0.44483   1.74423   0.94517
H     0.48747   3.31151   2.43545
H    -1.97131  -0.10968   3.22088
H    -1.07306   2.08659   3.95297
C     0.35697  -0.30080  -0.55318
C     1.33314   2.41855   0.04872
C     1.66021   1.82181  -1.11163
C     1.17663   0.48954  -1.43763
H     1.72851   3.40187   0.32160
H     2.34364   2.33953  -1.80098
C     0.01769  -1.70262  -0.82086
C     1.64461  -0.06194  -2.65043
C     0.36434  -2.06854  -2.11072
C     1.19193  -1.31611  -2.98725
H     2.33432   0.48836  -3.30242
H     1.57688  -1.78717  -3.88732
H    -0.33448  -2.89087  -0.10782
H     0.01668  -3.02720  -2.47659
27
autodE path point 3. E = -2061.453165152265 charge = -1 mult = 1 
Pd   -2.05808  -1.62726   0.52485
Cl   -3.48802  -3.27018  -0.18722
Cl   -0.59750  -4.30515   1.10137
Cl   -3.97428  -0.26330   0.81932
N    -0.96872  -0.11768   1.41288
C    -1.29104   0.43577   2.57594
C    -0.76426   1.66445   3.00223
C     0.08131   2.33987   2.16474
C    -0.06510   0.47435   0.61427
C     0.44817   1.75085   0.94923
H     0.48622   3.31253   2.43494
H    -1.98195  -0.10639   3.21367
H    -1.07320   2.08321   3.95097
C     0.34420  -0.23051  -0.58063
C     1.33709   2.42307   0.04565
C     1.67402   1.83635  -1.10977
C     1.20114   0.51441  -1.44840
H     1.72993   3.40574   0.32295
H     2.35273   2.34772  -1.80295
C    -0.09843  -1.55638  -0.85776
C     1.65089  -0.06295  -2.65198
C     0.33613  -2.03817  -2.09715
C     1.20225  -1.32158  -2.96848
H     2.33534   0.48613  -3.30571
H     1.57650  -1.79172  -3.88277
H    -0.40845  -3.37961   0.22567
H     0.00394  -3.00512  -2.45826
27
autodE path point 4. E = -2061.480410122227 charge = -1 mult = 1 
Pd   -1.97210  -1.53861   0.39301
Cl   -3.29649  -3.29789  -0.29552
Cl   -0.52095  -4.59518   1.01320
Cl   -4.04018  -0.49535   1.12705
N    -0.97942  -0.04821   1.39152
C    -1.31389   0.49442   2.55559
C    -0.78686   1.72508   2.98045
C     0.08057   2.39027   2.15711
C    -0.06783   0.54613   0.61129
C     0.46514   1.80118   0.95022
H     0.50059   3.35429   2.43329
H    -2.03084  -0.03082   3.18165
H    -1.10712   2.15526   3.92024
C     0.31904  -0.14954  -0.57942
C     1.38318   2.43641   0.05673
C     1.73070   1.83516  -1.09017
C     1.23228   0.52926  -1.43292
H     1.79230   3.40756   0.33453
H     2.42799   2.32640  -1.77363
C    -0.24131  -1.42543  -0.87537
C     1.66685  -0.07968  -2.62575
C     0.22847  -1.98099  -2.06678
C     1.16309  -1.33028  -2.92045
H     2.36651   0.44137  -3.28139
H     1.52667  -1.80614  -3.83914
H    -0.39979  -3.73458   0.11238
H    -0.12545  -2.92897  -2.43779
27
autodE path point 5. E = -2061.500867449988 charge = -1 mult = 1 
Pd   -1.95541  -1.50489   0.39482
Cl   -3.10101  -3.31677  -0.42313
Cl   -0.29581  -4.86807   0.84743
Cl   -4.03849  -0.84940   1.49040
N    -1.01105   0.04067   1.37777
C    -1.35708   0.59054   2.53296
C    -0.82595   1.82246   2.94988
C     0.08161   2.45835   2.14565
C    -0.08070   0.62133   0.61087
C     0.48602   1.85754   0.95015
H     0.52368   3.41070   2.43286
H    -2.10048   0.07230   3.13832
H    -1.15837   2.26538   3.87883
C     0.29973  -0.08503  -0.57112
C     1.44458   2.44542   0.07298
C     1.79567   1.81889  -1.06286
C     1.25676   0.53479  -1.41273
H     1.87734   3.40185   0.35070
H     2.52530   2.28416  -1.72994
C    -0.32103  -1.32960  -0.87432
C     1.67345  -0.10981  -2.59096
C     0.12803  -1.92511  -2.04307
C     1.11268  -1.33789  -2.87696
H     2.40068   0.36991  -3.24552
H     1.45897  -1.83165  -3.78841
H    -0.52746  -3.97963  -0.14153
H    -0.28150  -2.85039  -2.41542
27
autodE path point 6. E = -2061.540099489072 charge = -1 mult = 1 
Pd   -1.89828  -1.46969   0.50340
Cl   -2.61026  -3.39911  -0.56688
Cl    0.23037  -5.25633  -0.24088
Cl   -3.56162  -1.62193   2.20585
N    -1.13880   0.25672   1.32628
C    -1.54032   0.86835   2.42249
C    -0.94894   2.05710   2.86144
C     0.07886   2.61270   2.13717
C    -0.12638   0.78451   0.60298
C     0.51964   1.97506   0.97080
H     0.54865   3.53538   2.45791
H    -2.35846   0.39314   2.95085
H    -1.31385   2.52317   3.76602
C     0.24408   0.05837  -0.55899
C     1.57631   2.44817   0.13078
C     1.94017   1.76141  -0.98013
C     1.29170   0.54331  -1.36357
H     2.08272   3.36723   0.40073
H     2.74558   2.13549  -1.60203
C    -0.47856  -1.12519  -0.83559
C     1.64209  -0.19906  -2.49917
C    -0.09110  -1.82152  -1.96762
C     0.95509  -1.36048  -2.77996
H     2.44614   0.14047  -3.14146
H     1.23140  -1.93967  -3.65341
H    -0.86687  -4.53036  -0.30969
H    -0.59936  -2.73724  -2.23732
