! EnGrad PBEh-3c
%output 
xyzfile=True 
end 
%scf 
maxiter 250 
end
%output
Print[P_Hirshfeld] = 1
end
% maxcore
4000
*xyz 0 1
Lu   0.48896061   0.38770891  -0.26558033 
C    0.47352925   1.01364379   2.50800988 
C    1.36504914  -0.04162190   2.19555378 
C    2.31922295   0.44180777   1.27602687 
C    1.98481969   1.79310106   1.00708233 
C    0.74647871   2.08250080   1.63267753 
H    2.53711900   2.45944762   0.35824104 
H    0.21714895   3.02502505   1.61462749 
H   -0.31469274   0.98696465   3.25048347 
H    1.36452559  -1.02021008   2.65949595 
H    3.20195409  -0.07935402   0.93257088 
C    1.04229262  -0.10225732  -2.60722968 
C   -0.27292039  -0.62105231  -2.58604712 
C    1.03404648  -1.94279336  -1.26655297 
C    1.84775304  -0.89364498  -1.75304861 
H    1.34886380   0.79012555  -3.13486579 
C   -0.20312021  -1.87683178  -1.95274316 
H   -1.11430293  -0.26720575  -3.16322569 
H    2.90143426  -0.76105680  -1.55409793 
H    1.35021736  -2.76307086  -0.63528515 
H   -1.01676382  -2.58851487  -1.87943057 
C   -2.70627833  -1.71093431   1.47356070 
H   -2.46055906  -1.51877971   2.51921312 
H   -2.80745728  -2.73585046   1.13105423 
H   -3.32186768  -0.96670818   0.94138065 
C   -1.94446735   1.73925332  -0.71240344 
H   -1.44208172  -0.81558312   0.65075696 
H   -1.45208704   2.52133707  -1.29842787 
H   -2.54454633   2.25762148   0.03802725 
H   -2.62228066   1.20693578  -1.37982359 
*
