! EnGrad PBEh-3c
%output 
xyzfile=True 
end 
%scf 
maxiter 250 
end
%output
Print[P_Hirshfeld] = 1
end
% maxcore
4000
*xyz 0 1
Lu   0.04018582   0.30238212  -0.14127306 
C    0.41844887   0.90364522   2.43523493 
C    1.37715996  -0.10523326   2.15579938 
C    2.30406625   0.42209331   1.24136994 
C    1.91413226   1.73915089   0.93502817 
C    0.72540725   2.02945025   1.64765706 
H    2.46052045   2.43075505   0.30746372 
H    0.22511783   2.98710661   1.68760367 
H   -0.37720400   0.82886281   3.15985445 
H    1.44300240  -1.06731075   2.64082952 
H    3.21988018  -0.06350189   0.92740535 
C    0.99284625  -0.07366463  -2.51397757 
C   -0.30407378  -0.63611307  -2.52449951 
C    1.04582774  -1.94169135  -1.21241438 
C    1.81772327  -0.87508906  -1.70460174 
H    1.30600084   0.80444466  -3.06141424 
C   -0.25277078  -1.82319996  -1.76461096 
H   -1.13426278  -0.30275480  -3.12804152 
H    2.88263838  -0.75204699  -1.55833593 
H    1.42218196  -2.78557176  -0.65006874 
H   -1.06445862  -2.51870684  -1.61425777 
C   -2.52523236  -1.52710851   1.30905897 
H   -2.25251430  -1.37279672   2.36976046 
H   -2.13140552  -2.49520098   0.94114806 
H   -3.66588518  -1.34953602   1.10127049 
C   -1.77267994   1.77758304  -0.79730915 
H   -2.00035097  -0.74549702   0.72468669 
H   -1.26888705   2.58029402  -1.36480288 
H   -2.38850319   2.32119976  -0.06365988 
H   -2.48406961   1.35270705  -1.52167885 
*
