! EnGrad PBEh-3c
%output 
xyzfile=True 
end 
%scf 
maxiter 250 
end
%output
Print[P_Hirshfeld] = 1
end
% maxcore
4000
*xyz 0 1
Lu   0.28618098   0.38184761  -0.24123314 
C    0.45811054   0.97143898   2.46005840 
C    1.36049935  -0.03948102   2.21541435 
C    2.34758822   0.46285173   1.30371036 
C    1.97890546   1.78903765   0.98059197 
C    0.78889375   2.09298517   1.68323672 
H    2.53032868   2.45997710   0.35145916 
H    0.21831575   3.01475155   1.61763728 
H   -0.31529971   0.96810488   3.23940968 
H    1.37088708  -1.02377231   2.65390947 
H    3.20437258  -0.07783911   0.93604552 
C    1.04215789  -0.08262912  -2.58725092 
C   -0.24966958  -0.66638553  -2.62964856 
C    1.03627208  -1.97735053  -1.29796450 
C    1.85937784  -0.90121337  -1.77706440 
H    1.34529407   0.79525265  -3.12780749 
C   -0.22048792  -1.83095425  -1.86513014 
H   -1.11339340  -0.26783394  -3.15405190 
H    2.90155165  -0.76307754  -1.55630119 
H    1.35822117  -2.76328798  -0.63665663 
H   -1.01687530  -2.58141159  -1.85011766 
C   -2.56151417  -1.57390100   1.36097420 
H   -2.45530235  -1.52430308   2.48999842 
H   -2.74189655  -2.73171684   1.13053541 
H   -3.34245444  -1.04684679   0.99326922 
C   -1.87204160   1.72754987  -0.71984546 
H   -1.62231075  -0.84953679   0.71442154 
H   -1.43929573   2.53794673  -1.31385733 
H   -2.53317717   2.27205735   0.02822061 
H   -2.61177613   1.22691644  -1.40259460 
*
