! EnGrad PBEh-3c
%output 
xyzfile=True 
end 
%scf 
maxiter 250 
end
%output
Print[P_Hirshfeld] = 1
end
% maxcore
4000
*xyz 0 1
Lu   0.11713811   0.37152662  -0.21256555 
C    0.41838725   0.95501281   2.44269505 
C    1.39025659  -0.05439816   2.20646235 
C    2.35173791   0.47052868   1.32614594 
C    1.96930889   1.77634248   0.96560733 
C    0.81463794   2.10076019   1.71235982 
H    2.52348120   2.46283446   0.33971057 
H    0.22117546   2.99992384   1.62649967 
H   -0.31068608   0.94389057   3.22062391 
H    1.37783935  -1.03244480   2.65108599 
H    3.20890607  -0.07643415   0.93857870 
C    1.03590855  -0.07745998  -2.56870859 
C   -0.23756702  -0.68157286  -2.65719867 
C    1.06664104  -1.98275474  -1.31235032 
C    1.85096381  -0.91788315  -1.78280726 
H    1.34008550   0.80423067  -3.11964618 
C   -0.25711025  -1.81378312  -1.80146362 
H   -1.11016445  -0.27544987  -3.14315523 
H    2.90439009  -0.76423067  -1.55747704 
H    1.36730321  -2.76938903  -0.63651880 
H   -1.01536461  -2.56680433  -1.81031907 
C   -2.38134376  -1.52494252   1.28908585 
H   -2.43676759  -1.51814683   2.43563436 
H   -2.64124062  -2.67823081   1.12602308 
H   -3.41728857  -1.09873774   1.02055747 
C   -1.83395896   1.72218994  -0.72460699 
H   -1.82449142  -0.87812240   0.78125745 
H   -1.41595690   2.55821769  -1.33194782 
H   -2.50613839   2.28357244  -0.00268050 
H   -2.58607062   1.26228774  -1.42320390 
*
