! EnGrad PBEh-3c
%output 
xyzfile=True 
end 
%scf 
maxiter 250 
end
%output
Print[P_Hirshfeld] = 1
end
% maxcore
4000
*xyz 0 1
Lu   0.11255240   0.37029880  -0.20762853 
C    0.41471722   0.96414284   2.44651662 
C    1.40062100  -0.05802713   2.19405723 
C    2.34489868   0.46113176   1.32234460 
C    1.96646208   1.77466035   0.96854805 
C    0.80568558   2.09752796   1.70521688 
H    2.52315166   2.46347335   0.33689776 
H    0.22373995   2.99847757   1.63034329 
H   -0.31396255   0.93879741   3.21683792 
H    1.37984127  -1.03634998   2.65244754 
H    3.20855851  -0.07474396   0.93969095 
C    1.03122579  -0.08152889  -2.57074549 
C   -0.24292908  -0.67180964  -2.64693873 
C    1.07443352  -1.97124013  -1.30496326 
C    1.84716929  -0.92149054  -1.77310425 
H    1.33996283   0.80574960  -3.11836646 
C   -0.25886532  -1.81690080  -1.80990354 
H   -1.10865448  -0.27814425  -3.14369920 
H    2.90333596  -0.76419604  -1.55802335 
H    1.37005908  -2.77212759  -0.63687309 
H   -1.01855280  -2.56381012  -1.80007783 
C   -2.41183637  -1.58450573   1.32685069 
H   -2.42370952  -1.50776383   2.40855047 
H   -2.60694507  -2.63692157   1.11877098 
H   -3.43085815  -1.09764446   1.01899211 
C   -1.84689145   1.72630566  -0.72492493 
H   -1.82556819  -0.86764729   0.77408863 
H   -1.41109332   2.55904364  -1.33372033 
H   -2.49057449   2.27699227  -0.01447419 
H   -2.57295645   1.27084552  -1.42042525 
*
