! EnGrad PBEh-3c
%output 
xyzfile=True 
end 
%scf 
maxiter 250 
end
%output
Print[P_Hirshfeld] = 1
end
% maxcore
4000
*xyz 0 1
Lu   0.08055470   0.36727125  -0.20004994 
C    0.42390266   0.95580229   2.43377832 
C    1.39217141  -0.05680194   2.19767228 
C    2.35076457   0.45887787   1.31801089 
C    1.96384947   1.77530686   0.96380588 
C    0.80428087   2.09318801   1.70904896 
H    2.51955757   2.46135491   0.33553189 
H    0.22453873   2.99783692   1.63360835 
H   -0.32087439   0.93138981   3.21671151 
H    1.38383871  -1.03937152   2.65134297 
H    3.20813979  -0.07288090   0.94095654 
C    1.02924389  -0.07824563  -2.56916552 
C   -0.24462648  -0.67762005  -2.64109633 
C    1.06649056  -1.97687270  -1.30233392 
C    1.85329341  -0.91757277  -1.77195859 
H    1.33819464   0.80530699  -3.11427714 
C   -0.25074563  -1.80570021  -1.80173906 
H   -1.10990850  -0.27902574  -3.14373146 
H    2.90016311  -0.76474975  -1.55903799 
H    1.37417474  -2.77277040  -0.63808550 
H   -1.02429560  -2.56362255  -1.78685812 
C   -2.43252951  -1.57248008   1.32151225 
H   -2.41074986  -1.50136721   2.39586886 
H   -2.57000110  -2.62371871   1.10930578 
H   -3.42893686  -1.12360650   1.03282506 
C   -1.83790181   1.73059691  -0.73059059 
H   -1.85038716  -0.86358094   0.77653245 
H   -1.40480754   2.55940885  -1.33523604 
H   -2.48147381   2.27861353  -0.02150565 
H   -2.56488984   1.27926587  -1.42583060 
*
