! EnGrad PBEh-3c
%output 
xyzfile=True 
end 
%scf 
maxiter 250 
end
%output
Print[P_Hirshfeld] = 1
end
% maxcore
4000
*xyz 0 1
Lu  -0.02108971   0.34421247  -0.16312877 
C    0.43280503   0.92782122   2.41743156 
C    1.37892666  -0.07088775   2.19119015 
C    2.34521307   0.44735065   1.29122058 
C    1.94843373   1.76713613   0.94971525 
C    0.78446472   2.06800895   1.69559992 
H    2.49865094   2.45026127   0.32555610 
H    0.22789183   2.99575252   1.65619428 
H   -0.34476893   0.88884272   3.19476139 
H    1.40670972  -1.05114606   2.64614316 
H    3.21470195  -0.06810052   0.94166039 
C    1.01809477  -0.07473347  -2.55407025 
C   -0.26226559  -0.67126901  -2.59747573 
C    1.05179486  -1.97458623  -1.27334226 
C    1.85110097  -0.90191605  -1.75369289 
H    1.32749949   0.80461572  -3.09299024 
C   -0.24074497  -1.79658283  -1.77799272 
H   -1.11697452  -0.28829602  -3.14271146 
H    2.89274965  -0.76404268  -1.56166224 
H    1.39588158  -2.77900321  -0.64491604 
H   -1.04187695  -2.54457606  -1.71157813 
C   -2.52133958  -1.55004560   1.32508341 
H   -2.33550338  -1.45280877   2.35956063 
H   -2.36592975  -2.56535751   1.04021517 
H   -3.49890228  -1.23161632   1.08050319 
C   -1.80478888   1.75614721  -0.76316513 
H   -1.93050435  -0.81976185   0.76177667 
H   -1.36063193   2.56280497  -1.34464144 
H   -2.43385142   2.28987101  -0.05104229 
H   -2.52271294   1.31892695  -1.45893937 
*
