! EnGrad PBEh-3c
%output 
xyzfile=True 
end 
%scf 
maxiter 250 
end
%output
Print[P_Hirshfeld] = 1
end
% maxcore
4000
*xyz 0 1
Lu   0.02865625   0.30654902  -0.14134037 
C    0.42120368   0.90850560   2.43618287 
C    1.37758233  -0.09767599   2.15786622 
C    2.31005882   0.42159487   1.24642449 
C    1.92028268   1.74528790   0.93827277 
C    0.73167399   2.03167608   1.65001817 
H    2.46679020   2.43325431   0.31082033 
H    0.22634343   2.99153486   1.68458582 
H   -0.37241492   0.83748303   3.16374963 
H    1.43813119  -1.06649817   2.64249454 
H    3.21996269  -0.06342411   0.93112846 
C    0.99595279  -0.07409561  -2.52297729 
C   -0.29787460  -0.63789640  -2.52838334 
C    1.04694698  -1.94230545  -1.21930750 
C    1.82487511  -0.87977805  -1.70902913 
H    1.30993135   0.80345544  -3.06581159 
C   -0.25087985  -1.82202517  -1.77198206 
H   -1.13234125  -0.30079348  -3.13374691 
H    2.88354496  -0.75489000  -1.55998895 
H    1.41971422  -2.78644971  -0.64971440 
H   -1.06142218  -2.52103402  -1.62635768 
C   -2.52341582  -1.52784095   1.31259350 
H   -2.25820998  -1.38229751   2.37510442 
H   -2.15530884  -2.51161190   0.94978507 
H   -3.66429796  -1.33138270   1.09786863 
C   -1.77874096   1.77500655  -0.79298388 
H   -1.98738473  -0.75969375   0.73044783 
H   -1.28153603   2.58010517  -1.36382491 
H   -2.39525828   2.31770086  -0.06081167 
H   -2.49022237   1.34780155  -1.51432015 
*
