! EnGrad PBEh-3c
%output 
xyzfile=True 
end 
%scf 
maxiter 250 
end
%output
Print[P_Hirshfeld] = 1
end
% maxcore
4000
*xyz 0 1
Lu   0.06885961   0.29201911  -0.14110565 
C    0.41159773   0.89155757   2.43287744 
C    1.37610953  -0.12402803   2.15065920 
C    2.28916285   0.42333291   1.22879939 
C    1.89883630   1.72388829   0.92695892 
C    0.70982198   2.02391466   1.64178504 
H    2.44492770   2.42453944   0.29911590 
H    0.22206980   2.97609366   1.69510901 
H   -0.38911435   0.80742452   3.15016723 
H    1.45511698  -1.06933161   2.63668864 
H    3.21967497  -0.06369533   0.91814605 
C    0.98512035  -0.07259281  -2.49159546 
C   -0.31949101  -0.63167797  -2.51484053 
C    1.04304420  -1.94016409  -1.19527132 
C    1.79993678  -0.86342765  -1.69359092 
H    1.29622574   0.80690484  -3.05047813 
C   -0.25747349  -1.82612162  -1.74627919 
H   -1.13904159  -0.30763255  -3.11385235 
H    2.88038371  -0.74497648  -1.55422491 
H    1.42831918  -2.78338830  -0.65094999 
H   -1.07201018  -2.51291918  -1.58416555 
C   -2.52975004  -1.52528694   1.30026866 
H   -2.23834925  -1.34916847   2.35647017 
H   -2.07195846  -2.45438738   0.91966799 
H   -3.66983255  -1.39468295   1.10973083 
C   -1.75760632   1.78399073  -0.80806599 
H   -2.03259772  -0.71019007   0.71035884 
H   -1.23742929   2.58076369  -1.36723509 
H   -2.37170340   2.32990146  -0.07074334 
H   -2.46876784   1.36490691  -1.53997977 
*
