! EnGrad PBEh-3c
%output 
xyzfile=True 
end 
%scf 
maxiter 250 
end
%output
Print[P_Hirshfeld] = 1
end
% maxcore
4000
%pal nprocs 4
end
*xyz 1 1
Sc   0.31964000  -0.36645000  -2.08395000 
C    0.11613000  -0.35340000   0.20096000 
N   -0.46476000  -1.31364000   0.94353000 
C   -0.46454000  -0.97586000   2.26709000 
C    0.13186000   0.23532000   2.35675000 
N    0.47508000   0.59590000   1.08434000 
C    1.15514000   1.83815000   0.76221000 
H    0.65842000   2.67072000   1.25438000 
H    1.11969000   2.01675000  -0.30950000 
H    2.19357000   1.80038000   1.08526000 
C   -1.00751000  -2.56363000   0.43579000 
H   -1.14437000  -2.50642000  -0.64250000 
H   -1.97992000  -2.75074000   0.88449000 
H   -0.34103000  -3.39101000   0.67115000 
H   -0.88639000  -1.60447000   3.03283000 
H    0.32606000   0.85626000   3.21477000 
C    0.19416000   1.56325000  -2.95042000 
H   -0.27161000   1.46880000  -3.94099000 
H    1.14529000   2.08843000  -3.09899000 
H   -0.45523000   2.23315000  -2.37277000 
H   -0.81965000  -1.54149000  -2.79443000 
*
