! EnGrad PBEh-3c
%output 
xyzfile=True 
end 
%scf 
maxiter 250 
end
%output
Print[P_Hirshfeld] = 1
end
% maxcore
4000
*xyz 1 1
Ir   0.50266512  -0.77689710   0.66426038 
C   -0.00683579  -2.88093269   1.18279674 
C    0.25428479  -2.16071289   2.40360084 
C    2.14587843  -2.08419296   1.05354509 
C    1.14717793  -2.82508960   0.35865631 
C    1.59556788  -1.75061113   2.33549942 
N   -1.06837421  -0.09574179  -0.47838320 
C   -2.46303153  -0.08426886  -0.00067987 
C   -2.84140609   1.18965580   0.74348485 
H   -3.87003351   1.17487997   1.10541960 
H   -2.75077461   2.03760697   0.06612678 
H   -2.22693635   1.33341731   1.62587788 
C   -3.54832820  -0.41917905  -1.02182610 
H   -2.52712188  -0.87477400   0.74791615 
H   -4.50941252  -0.57619089  -0.53380669 
H   -3.68638427   0.38676896  -1.74302569 
H   -3.31278957  -1.33764589  -1.55880382 
C   -0.83331031   0.22592583  -1.69499109 
C    0.45767083   0.21651348  -2.29765718 
H   -1.64689780   0.52824909  -2.34645424 
C    1.60856484  -0.11215823  -1.63621012 
C    2.75083864  -0.17638804  -2.46162314 
S    0.77341913   0.28083303  -3.97461044 
C    2.43220055   0.03277248  -3.77478952 
H    2.23646946   1.21511186  -0.85887513 
H    3.78486300  -0.28570942  -2.16341226 
H    3.10424300  -0.02706442  -4.61740404 
H   -0.78751782  -3.61819183   1.06226848 
H   -0.38813733  -2.11323863   3.26998568 
H    2.15930175  -1.33360495   3.15658537 
O    2.00528571   2.05618505   0.37150019 
O    0.37873996   1.17410588   1.47555606 
C    1.04036005   2.17486232   1.19183030 
C    0.92506374   3.47523679   1.88533900 
H    0.87724876   4.28416780   1.15730277 
H    1.79240510   3.68040107   2.51420480 
H    0.04091697   3.51129609   2.51389097 
H    3.19327020  -2.01219713   0.80453287 
H    1.26085190  -3.43317622  -0.52762400 
*
