! EnGrad PBEh-3c
%output 
xyzfile=True 
end 
%scf 
maxiter 250 
end
%output
Print[P_Hirshfeld] = 1
end
% maxcore
4000
*xyz 1 1
Ir   0.60565275  -0.75336388   0.60457274 
C   -0.00485337  -2.90737234   1.26684701 
C    0.31288509  -2.13989236   2.40114126 
C    2.15621607  -2.18869665   1.04407612 
C    1.07371194  -2.85702111   0.36285056 
C    1.69017488  -1.73375073   2.27883581 
N   -1.07870528  -0.10637542  -0.51349203 
C   -2.49020450  -0.08403640   0.03375586 
C   -2.83524896   1.24461629   0.69615423 
H   -3.87355209   1.19247691   1.02967706 
H   -2.75459441   2.07830230  -0.00204856 
H   -2.21314565   1.43730115   1.56369428 
C   -3.51450653  -0.44615250  -1.03145737 
H   -2.49490571  -0.86513196   0.79302997 
H   -4.46925469  -0.58282561  -0.52608392 
H   -3.67700453   0.33717794  -1.77408008 
H   -3.27746782  -1.37987681  -1.53789126 
C   -0.83763711   0.24744529  -1.72423721 
C    0.50635245   0.18227162  -2.26063986 
H   -1.66969819   0.54335027  -2.35345013 
C    1.65672911   0.05215122  -1.45558245 
C    2.74989503  -0.13653800  -2.43558811 
S    0.73830278   0.26652253  -3.98095381 
C    2.41450242  -0.00706789  -3.76723136 
H    1.98898654   1.13483928  -0.57738745 
H    3.79194402  -0.26338933  -2.16999771 
H    3.07926803  -0.02646726  -4.63600039 
H   -0.88937843  -3.50892757   1.12815040 
H   -0.27841657  -2.07109151   3.30292775 
H    2.27354679  -1.27900601   3.05836082 
O    2.02157547   2.04175290   0.24067552 
O    0.33264364   1.13283866   1.50836110 
C    1.13372585   2.06729497   1.16511663 
C    0.90617970   3.43126951   1.90357002 
H    0.86728723   4.25415076   1.18206284 
H    1.76573480   3.64462375   2.54413664 
H    0.00726251   3.49580381   2.53812666 
H    3.14646770  -2.04156597   0.66204024 
H    1.13674620  -3.40725255  -0.55714261 
*
