! EnGrad PBEh-3c
%output 
xyzfile=True 
end 
%scf 
maxiter 250 
end
%output
Print[P_Hirshfeld] = 1
end
% maxcore
4000
*xyz 1 1
Ir   0.67084603  -0.76687962   0.55767516 
C   -0.01397738  -2.91631885   1.33099737 
C    0.38844195  -2.10894832   2.41933259 
C    2.17489253  -2.28741062   0.99393324 
C    1.03414963  -2.89582315   0.36080028 
C    1.76289426  -1.71906609   2.22455150 
N   -1.07289854  -0.11913461  -0.52743988 
C   -2.45949224  -0.07977662   0.03133641 
C   -2.82844380   1.28737236   0.64559315 
H   -3.87388744   1.21743359   0.95674173 
H   -2.75699434   2.11561012  -0.07269717 
H   -2.19836553   1.54755344   1.50181452 
C   -3.49082386  -0.47675893  -1.02913997 
H   -2.46375784  -0.85026335   0.83688047 
H   -4.43721913  -0.59414129  -0.52212432 
H   -3.66206385   0.28505987  -1.80197070 
H   -3.23923402  -1.42296315  -1.51816908 
C   -0.83879447   0.25011952  -1.73850065 
C    0.52007053   0.19983124  -2.19527074 
H   -1.68247698   0.56258474  -2.37273129 
C    1.65044301   0.14768468  -1.43084518 
C    2.74538428  -0.07637455  -2.37160426 
S    0.72495976   0.22711234  -3.91379303 
C    2.39744829  -0.04242172  -3.71893234 
H    1.72283149   1.09257133  -0.22008590 
H    3.79388468  -0.23877601  -2.16861286 
H    3.03707466  -0.03219493  -4.61983534 
H   -1.01030547  -3.37751800   1.18994796 
H   -0.17330350  -2.00953727   3.32796788 
H    2.39401592  -1.20599512   2.95728632 
O    1.96855063   1.98948173   0.16425056 
O    0.40760226   1.10127565   1.46313542 
C    1.15242612   2.05190638   1.14775289 
C    0.91647715   3.35409932   1.90038064 
H    0.86031316   4.20172586   1.20759750 
H    1.73918134   3.60372054   2.57170645 
H    0.00045128   3.44530416   2.53195798 
H    3.11934351  -2.07794361   0.51019829 
H    1.01427197  -3.38635168  -0.59981760 
*
