! EnGrad PBEh-3c
%output 
xyzfile=True 
end 
%scf 
maxiter 250 
end
%output
Print[P_Hirshfeld] = 1
end
% maxcore
4000
*xyz 1 1
Ir   0.62589784  -0.75756105   0.59000919 
C   -0.00768674  -2.91015058   1.28676823 
C    0.33634848  -2.13028301   2.40679038 
C    2.16201585  -2.21935124   1.02850477 
C    1.06142628  -2.86907068   0.36221386 
C    1.71275712  -1.72919057   2.26197839 
N   -1.07690206  -0.11033765  -0.51782339 
C   -2.48066713  -0.08271357   0.03300453 
C   -2.83313569   1.25789374   0.68045302 
H   -3.87365623   1.20022695   1.00702776 
H   -2.75533968   2.08988786  -0.02398775 
H   -2.20855584   1.47153885   1.54447817 
C   -3.50715212  -0.45565701  -1.03073772 
H   -2.48523306  -0.86051467   0.80664729 
H   -4.45930638  -0.58633957  -0.52485431 
H   -3.67236486   0.32099322  -1.78274122 
H   -3.26559471  -1.39325682  -1.53176675 
C   -0.83799651   0.24827575  -1.72866657 
C    0.51061245   0.18772458  -2.24034017 
H   -1.67366651   0.54932333  -2.35943769 
C    1.65477703   0.08181814  -1.44790055 
C    2.74849426  -0.11785487  -2.41571859 
S    0.73415924   0.25428410  -3.96009774 
C    2.40920644  -0.01804665  -3.75223261 
H    1.90633487   1.12171341  -0.46643119 
H    3.79254667  -0.25574592  -2.16956766 
H    3.06616532  -0.02824593  -4.63098051 
H   -0.92693106  -3.46811970   1.14734099 
H   -0.24577480  -2.05197648   3.31070370 
H    2.31095722  -1.25633324   3.02697319 
O    2.00510916   2.02552063   0.21694255 
O    0.35592126   1.12303710   1.49431674 
C    1.13953302   2.06251620   1.15972450 
C    0.90937747   3.40730512   1.90257959 
H    0.86512151   4.23787076   1.18999236 
H    1.75748890   3.63192169   2.55269816 
H    0.00514736   3.48012167   2.53621104 
H    3.13804457  -2.05286267   0.61488731 
H    1.09871311  -3.40076200  -0.57039488 
*
