! EnGrad PBEh-3c
%output 
xyzfile=True 
end 
%scf 
maxiter 250 
end
%output
Print[P_Hirshfeld] = 1
end
% maxcore
4000
*xyz 1 1
Ir   0.63486719  -0.76615802   0.58359250 
C   -0.01158353  -2.90572907   1.30016658 
C    0.35751299  -2.12462098   2.41041844 
C    2.16523263  -2.23791218   1.01154192 
C    1.05192143  -2.87995671   0.36139888 
C    1.73238257  -1.72799190   2.24575947 
N   -1.07294408  -0.11292184  -0.51998931 
C   -2.46923216  -0.08186141   0.03149124 
C   -2.82999081   1.26758488   0.66593002 
H   -3.87259889   1.20831968   0.98901486 
H   -2.75621033   2.09701555  -0.04319911 
H   -2.20652685   1.49958543   1.52758855 
C   -3.50028278  -0.46381826  -1.02965266 
H   -2.47783795  -0.85192438   0.81465144 
H   -4.45314019  -0.59056466  -0.52362443 
H   -3.66714417   0.30626140  -1.78846037 
H   -3.25579778  -1.40391587  -1.52562350 
C   -0.83908293   0.24723215  -1.72468017 
C    0.50534715   0.19889964  -2.23144568 
H   -1.67256840   0.55343960  -2.36416577 
C    1.64802759   0.08335598  -1.45317865 
C    2.74747410  -0.10092730  -2.40206877 
S    0.73321813   0.24236267  -3.94152287 
C    2.40455153  -0.02338531  -3.73652087 
H    1.85112451   1.11838996  -0.38065405 
H    3.79387418  -0.24781941  -2.16589501 
H    3.05364971  -0.03187334  -4.62154003 
H   -0.95465887  -3.43146016   1.16540757 
H   -0.21901687  -2.03290624   3.31897833 
H    2.34162507  -1.23897321   2.99785749 
O    1.98920774   2.01600573   0.20957440 
O    0.37927053   1.11490373   1.48187525 
C    1.12996079   2.06493552   1.16319601 
C    0.91231080   3.39142221   1.90202836 
H    0.86432280   4.22272976   1.19600840 
H    1.75198861   3.62009048   2.55976872 
H    0.00680134   3.46169842   2.53078730 
H    3.13271212  -2.06518595   0.57470383 
H    1.06660543  -3.39738058  -0.58140824 
*
