! EnGrad PBEh-3c
%output 
xyzfile=True 
end 
%scf 
maxiter 250 
end
%output
Print[P_Hirshfeld] = 1
end
% maxcore
4000
*xyz 1 1
Ir   0.55896153  -0.76019410   0.64376835 
C    0.00836256  -2.87859267   1.23587046 
C    0.26345076  -2.17087258   2.38492816 
C    2.13432248  -2.11350201   1.08492718 
C    1.08184976  -2.84570885   0.35900824 
C    1.67721223  -1.74538282   2.28525607 
N   -1.07913016  -0.09900800  -0.49074810 
C   -2.50197956  -0.09312515   0.04032370 
C   -2.83167172   1.22150035   0.71449959 
H   -3.87508226   1.18369468   1.06899373 
H   -2.75504518   2.05382536   0.03229407 
H   -2.22537730   1.38140864   1.59237268 
C   -3.51706543  -0.43010511  -1.03717829 
H   -2.51147305  -0.85635661   0.75918000 
H   -4.49501886  -0.58037224  -0.52468273 
H   -3.68248521   0.35926533  -1.75654598 
H   -3.29762763  -1.35556446  -1.54350177 
C   -0.84405736   0.24799217  -1.71910072 
C    0.48152934   0.19119665  -2.31209595 
H   -1.64761807   0.52978463  -2.33888839 
C    1.64689046  -0.04724639  -1.49327898 
C    2.76619348  -0.16144186  -2.47765241 
S    0.74959446   0.28254574  -4.00924871 
C    2.42499223   0.01679875  -3.78971850 
H    2.15395384   1.18544094  -0.76472123 
H    3.78928989  -0.27193139  -2.16829084 
H    3.09656207  -0.02788168  -4.63361597 
H   -0.82362689  -3.57699112   1.10382355 
H   -0.32992103  -2.09792909   3.29656652 
H    2.21098590  -1.32210015   3.10100187 
O    2.02002954   2.06494076   0.32039794 
O    0.27173587   1.11337294   1.54497970 
C    1.15379816   2.11413353   1.14177716 
C    0.88695163   3.49014116   1.91673076 
H    0.87319151   4.27223766   1.17112034 
H    1.78206872   3.66301319   2.53115344 
H    0.02465352   3.51452264   2.53066226 
H    3.16468679  -2.03080026   0.73483542 
H    1.19531900  -3.42088301  -0.53304829 
*
