! EnGrad PBEh-3c
%output 
xyzfile=True 
end 
%scf 
maxiter 250 
end
%output
Print[P_Hirshfeld] = 1
end
% maxcore
4000
*xyz 1 1
Ir   0.52477620  -0.77033680   0.65621190 
C   -0.00086646  -2.88001362   1.20364206 
C    0.25788483  -2.16470323   2.39626693 
C    2.14133970  -2.09570443   1.06587078 
C    1.12151953  -2.83318805   0.35879453 
C    1.62763466  -1.74855765   2.31576576 
N   -1.07259874  -0.09702464  -0.48323966 
C   -2.47832883  -0.08774727   0.01542476 
C   -2.83758280   1.20216312   0.73210055 
H   -3.87201647   1.17834205   1.09111291 
H   -2.75245193   2.04397693   0.05283858 
H   -2.22632402   1.35226647   1.61271832 
C   -3.53604938  -0.42347039  -1.02785585 
H   -2.52097562  -0.86754036   0.75234016 
H   -4.50375924  -0.57783316  -0.53022315 
H   -3.68485287   0.37596659  -1.74833594 
H   -3.30683454  -1.34468362  -1.55279376 
C   -0.83753134   0.23459264  -1.70446043 
C    0.46704154   0.20657000  -2.30332818 
H   -1.64718069   0.52885219  -2.34348266 
C    1.62361767  -0.08666334  -1.58007224 
C    2.75686943  -0.17051775  -2.46791882 
S    0.76406171   0.28150572  -3.98821503 
C    2.42936940   0.02649861  -3.78065305 
H    2.20406048   1.20345826  -0.82189508 
H    3.78660171  -0.28029794  -2.16532838 
H    3.10122623  -0.02738541  -4.62377147 
H   -0.80170008  -3.60200977   1.07858973 
H   -0.36527220  -2.10722563   3.28042562 
H    2.17960130  -1.32908631   3.13475430 
O    2.01107652   2.05962396   0.35142918 
O    0.33671285   1.15025231   1.50282301 
C    1.08491420   2.15101038   1.17217134 
C    0.91009476   3.48109066   1.89766848 
H    0.87565522   4.27948210   1.16272978 
H    1.78834537   3.67357177   2.52086158 
H    0.03452931   3.51256336   2.52047809 
H    3.18204373  -2.01950373   0.77715838 
H    1.23511308  -3.42834792  -0.52975446 
*
