! EnGrad PBEh-3c
%output 
xyzfile=True 
end 
%scf 
maxiter 250 
end
%output
Print[P_Hirshfeld] = 1
end
% maxcore
4000
*xyz 1 1
Ir   0.58124902  -0.74836128   0.63460916 
C   -0.00219977  -2.89339199   1.25867668 
C    0.29460960  -2.15824005   2.39114423 
C    2.13914615  -2.14681142   1.06399831 
C    1.05983940  -2.84796505   0.36444989 
C    1.69362298  -1.74399558   2.27503116 
N   -1.08071951  -0.09969021  -0.50304520 
C   -2.50833065  -0.08435816   0.04377186 
C   -2.83503185   1.23777308   0.69987628 
H   -3.87511672   1.19231323   1.04431380 
H   -2.75728595   2.06570112   0.00588174 
H   -2.22363895   1.41435420   1.57099623 
C   -3.51092301  -0.43985542  -1.03399978 
H   -2.50360511  -0.85258862   0.77680215 
H   -4.48017425  -0.58293381  -0.52400984 
H   -3.67813018   0.34305520  -1.76707535 
H   -3.28540426  -1.37082279  -1.53469434 
C   -0.83938149   0.25275584  -1.71861647 
C    0.50087986   0.17750873  -2.30161983 
H   -1.65510871   0.53468007  -2.34129559 
C    1.66738213   0.00488480  -1.44863830 
C    2.76130059  -0.15168159  -2.47372698 
S    0.74051196   0.27745641  -4.01587783 
C    2.42039420   0.00690479  -3.79390298 
H    2.10004199   1.15632568  -0.71165206 
H    3.79603757  -0.26142642  -2.17390947 
H    3.09157785  -0.02936848  -4.64418233 
H   -0.84519553  -3.54620468   1.13417260 
H   -0.28955349  -2.08744297   3.31115270 
H    2.25067885  -1.31277505   3.06712409 
O    2.03634982   2.05748484   0.28398123 
O    0.26719297   1.12622013   1.55650698 
C    1.13986387   2.06464946   1.16913796 
C    0.88738448   3.47259195   1.91991699 
H    0.86928213   4.26717233   1.17936773 
H    1.77172158   3.65391958   2.54317893 
H    0.00656783   3.51344085   2.54505142 
H    3.14286562  -2.04471674   0.68937515 
H    1.15017952  -3.41675943  -0.53915268 
*
