! EnGrad PBEh-3c
%output 
xyzfile=True 
end 
%scf 
maxiter 250 
end
%output
Print[P_Hirshfeld] = 1
end
% maxcore
4000
*xyz 1 1
Ir   0.54334660  -0.76311042   0.64910810 
C   -0.00130490  -2.88441293   1.22173953 
C    0.26996133  -2.16257789   2.39458239 
C    2.14061837  -2.11251034   1.06525504 
C    1.10123677  -2.83804729   0.36065423 
C    1.64933411  -1.74705747   2.30237068 
N   -1.07526915  -0.09790118  -0.48975247 
C   -2.48819456  -0.08663280   0.02474636 
C   -2.83674395   1.21387302   0.72150399 
H   -3.87303595   1.18293630   1.07572359 
H   -2.75404154   2.05112067   0.03739740 
H   -2.22544106   1.37268326   1.59899852 
C   -3.52778688  -0.42885840  -1.02987621 
H   -2.51526354  -0.86262366   0.76038419 
H   -4.49600361  -0.57951045  -0.52817998 
H   -3.68264219   0.36514408  -1.75449817 
H   -3.29978745  -1.35327917  -1.54684199 
C   -0.83813974   0.24056539  -1.70911547 
C    0.47816886   0.19701355  -2.30276641 
H   -1.64978772   0.53076862  -2.34276347 
C    1.63800908  -0.05655885  -1.53685179 
C    2.75832657  -0.16432371  -2.46982876 
S    0.75631766   0.28017415  -3.99731160 
C    2.42641802   0.02005542  -3.78501013 
H    2.16985527   1.18795929  -0.78564301 
H    3.78970458  -0.27409227  -2.16815017 
H    3.09805348  -0.02803752  -4.63048333 
H   -0.81600303  -3.58365895   1.09686748 
H   -0.34037302  -2.10072034   3.29052985 
H    2.20297429  -1.32372255   3.11251493 
O    2.01938734   2.05892054   0.32924974 
O    0.31385208   1.14234962   1.52047633 
C    1.10298373   2.12261164   1.17117385 
C    0.90262676   3.47829596   1.90498463 
H    0.87355951   4.27543418   1.16820097 
H    1.78287884   3.66710939   2.52820037 
H    0.02533451   3.51285191   2.52855873 
H    3.16916049  -2.02779472   0.74829194 
H    1.20718372  -3.42453719  -0.53284495 
*
