! EnGrad PBEh-3c
%output 
xyzfile=True 
end 
%scf 
maxiter 250 
end
%output
Print[P_Hirshfeld] = 1
end
% maxcore
4000
*xyz 1 1
Ir   0.59108454  -0.74894416   0.61670989 
C   -0.00256029  -2.90545368   1.24921835 
C    0.28903868  -2.15013421   2.39483836 
C    2.15345497  -2.16086415   1.06124045 
C    1.08168816  -2.84772921   0.36309693 
C    1.67499283  -1.73770850   2.29210183 
N   -1.08309339  -0.10490927  -0.50730151 
C   -2.50294987  -0.08429898   0.03599266 
C   -2.83650431   1.23283135   0.70978423 
H   -3.87216047   1.18500214   1.04883137 
H   -2.75378044   2.06828203   0.01717758 
H   -2.21679803   1.40752376   1.58046800 
C   -3.51921137  -0.43765016  -1.03177870 
H   -2.50261692  -0.86990616   0.78113103 
H   -4.47725633  -0.57963386  -0.52684891 
H   -3.68112959   0.35148941  -1.76664757 
H   -3.28799267  -1.36864898  -1.54388922 
C   -0.83725867   0.24930516  -1.72276765 
C    0.50418856   0.17540919  -2.28252841 
H   -1.66654977   0.53776427  -2.34776294 
C    1.65756663   0.02258645  -1.45096662 
C    2.75294171  -0.15316761  -2.45352630 
S    0.74029736   0.27869365  -4.00545360 
C    2.41702782   0.00352408  -3.78316515 
H    2.06176350   1.14985316  -0.67061200 
H    3.79116588  -0.27035326  -2.16822164 
H    3.09049389  -0.02496260  -4.63960983 
H   -0.85571659  -3.54146374   1.11078488 
H   -0.30694174  -2.08690403   3.29584080 
H    2.24020912  -1.29820030   3.08479209 
O    2.03884750   2.06011734   0.25936057 
O    0.29754650   1.13395978   1.52854661 
C    1.14268054   2.06944800   1.16152598 
C    0.90188253   3.45554209   1.90583494 
H    0.86940036   4.26913611   1.17400864 
H    1.77347375   3.65450067   2.53592502 
H    0.00777930   3.50893520   2.54059570 
H    3.15287413  -2.03094291   0.70290036 
H    1.17044556  -3.41247326  -0.54607613 
*
