! EnGrad PBEh-3c
%output 
xyzfile=True 
end 
%scf 
maxiter 250 
end
%output
Print[P_Hirshfeld] = 1
end
% maxcore
4000
*xyz 1 1
Ir   0.55948473  -0.75832142   0.63815567 
C   -0.00172930  -2.89152590   1.23102893 
C    0.27641056  -2.15837122   2.39466892 
C    2.14495787  -2.12885668   1.06389788 
C    1.09462823  -2.84132033   0.36148000 
C    1.65800822  -1.74389699   2.29889922 
N   -1.07791419  -0.10027031  -0.49568505 
C   -2.49318269  -0.08584384   0.02854825 
C   -2.83666294   1.22028202   0.71754204 
H   -3.87273999   1.18363467   1.06663250 
H   -2.75395327   2.05692218   0.03056195 
H   -2.22251923   1.38446133   1.59273415 
C   -3.52488787  -0.43183052  -1.03051936 
H   -2.51098826  -0.86508556   0.76739780 
H   -4.48966596  -0.57955217  -0.52773000 
H   -3.68213085   0.36052802  -1.75860536 
H   -3.29580015  -1.35847504  -1.54584378 
C   -0.83784189   0.24351993  -1.71373069 
C    0.48696500   0.18971005  -2.29592482 
H   -1.65545425   0.53313355  -2.34445358 
C    1.64462065  -0.02980324  -1.50781772 
C    2.75650618  -0.16055232  -2.46431761 
S    0.75090189   0.27967366  -4.00006406 
C    2.42324359   0.01446689  -3.78438642 
H    2.13331411   1.17507725  -0.74675599 
H    3.79019858  -0.27282827  -2.16817433 
H    3.09549791  -0.02699802  -4.63356860 
H   -0.82942847  -3.56939457   1.10157235 
H   -0.32907135  -2.09604964   3.29232525 
H    2.21556178  -1.31509458   3.10314303 
O    2.02596598   2.05932512   0.30562323 
O    0.30833987   1.13951338   1.52320454 
C    1.11640351   2.10463931   1.16791232 
C    0.90237517   3.47060386   1.90527209 
H    0.87215348   4.27330507   1.17016429 
H    1.77969938   3.66284693   2.53081174 
H    0.01939985   3.51152784   2.53262791 
H    3.16365477  -2.02885899   0.73294700 
H    1.19476413  -3.42045889  -0.53731784 
*
