! EnGrad PBEh-3c
%output 
xyzfile=True 
end 
%scf 
maxiter 250 
end
%output
Print[P_Hirshfeld] = 1
end
% maxcore
4000
*xyz 1 1
Ir   0.62693665  -0.74723132   0.58957399 
C    0.00276436  -2.91072403   1.28099228 
C    0.31618926  -2.13796579   2.39638087 
C    2.15321083  -2.20620059   1.05322257 
C    1.06723677  -2.86152150   0.36226302 
C    1.70010369  -1.73208989   2.26919786 
N   -1.08251431  -0.10869857  -0.52225505 
C   -2.49794984  -0.08632757   0.04153112 
C   -2.83443422   1.25265455   0.69278877 
H   -3.87391437   1.19166734   1.02097251 
H   -2.75425209   2.08452948  -0.00690983 
H   -2.20932961   1.44811643   1.55837062 
C   -3.51139990  -0.44828254  -1.03480056 
H   -2.49028483  -0.86885360   0.79958776 
H   -4.46256933  -0.58221074  -0.52522665 
H   -3.67728456   0.33310206  -1.77799189 
H   -3.27395398  -1.38438164  -1.53757357 
C   -0.83754286   0.25103379  -1.73133549 
C    0.51721301   0.17144488  -2.25217072 
H   -1.67722989   0.54584644  -2.35490474 
C    1.66526401   0.08585053  -1.41740294 
C    2.74724070  -0.13385860  -2.43054816 
S    0.73146562   0.26771208  -3.98611284 
C    2.41082522  -0.01404419  -3.76556177 
H    1.94680513   1.11923654  -0.53499995 
H    3.79184898  -0.26345533  -2.17008480 
H    3.07790084  -0.02432581  -4.64136980 
H   -0.90718406  -3.49789490   1.12935925 
H   -0.26921610  -2.06733970   3.30412557 
H    2.28579930  -1.26823980   3.05313142 
O    2.02453129   2.04453243   0.21687229 
O    0.32063124   1.12603185   1.51365412 
C    1.16524559   2.04820339   1.14966743 
C    0.90290259   3.42314530   1.90505263 
H    0.86577490   4.25309845   1.18333697 
H    1.76314214   3.64065906   2.54623534 
H    0.00140466   3.49639995   2.54258657 
H    3.14498845  -2.04002821   0.64689664 
H    1.12633516  -3.40132186  -0.56106380 
*
