! EnGrad PBEh-3c
%output 
xyzfile=True 
end 
%scf 
maxiter 250 
end
%output
Print[P_Hirshfeld] = 1
end
% maxcore
4000
*xyz 1 1
Ir   0.58144871  -0.75471021   0.62233629 
C   -0.00026605  -2.89777728   1.24729821 
C    0.28936347  -2.15172672   2.39522638 
C    2.14764524  -2.15404173   1.06042174 
C    1.08570891  -2.84789832   0.36173497 
C    1.67171552  -1.74005231   2.28922774 
N   -1.07941210  -0.10301476  -0.50433688 
C   -2.49473499  -0.08600135   0.03277578 
C   -2.83593722   1.23082330   0.70948178 
H   -3.87312239   1.18625030   1.05176450 
H   -2.75405057   2.06591179   0.01836023 
H   -2.21822437   1.40518897   1.58154455 
C   -3.52049586  -0.43718770  -1.03191342 
H   -2.50424672  -0.86631253   0.77787963 
H   -4.48084264  -0.58041786  -0.52691485 
H   -3.68055278   0.35159747  -1.76491808 
H   -3.28868651  -1.36691086  -1.54315080 
C   -0.83774452   0.24596662  -1.71946324 
C    0.49681448   0.18376247  -2.28167742 
H   -1.66254493   0.53727317  -2.34785673 
C    1.65134263   0.00785643  -1.47837648 
C    2.75348911  -0.15186019  -2.45332145 
S    0.74457297   0.27577868  -3.99552120 
C    2.41919987   0.00518299  -3.77825666 
H    2.07258226   1.15689416  -0.67780309 
H    3.79073599  -0.26977622  -2.16879643 
H    3.08976787  -0.02612788  -4.63610886 
H   -0.85474757  -3.54611254   1.11062044 
H   -0.30958103  -2.08670099   3.29616772 
H    2.23843282  -1.29983753   3.08685804 
O    2.02549881   2.05450826   0.27672377 
O    0.31234224   1.13512346   1.52009469 
C    1.13230767   2.08626241   1.16197134 
C    0.90254691   3.45515020   1.90520063 
H    0.87007646   4.26672531   1.17445363 
H    1.77430794   3.65562202   2.53583404 
H    0.01354018   3.50660183   2.53587069 
H    3.15757657  -2.03249596   0.70492692 
H    1.17248200  -3.41422741  -0.54505010 
*
