! EnGrad PBEh-3c
%output 
xyzfile=True 
end 
%scf 
maxiter 250 
end
%output
Print[P_Hirshfeld] = 1
end
% maxcore
4000
*xyz 1 1
Ir   0.65671356  -0.75052366   0.56709876 
C   -0.01453078  -2.92761407   1.30808716 
C    0.36250629  -2.11492661   2.41361928 
C    2.17429709  -2.26180463   1.00959342 
C    1.04840316  -2.87626654   0.36520399 
C    1.72911671  -1.72045693   2.25691300 
N   -1.07721416  -0.11346507  -0.53280572 
C   -2.48064698  -0.07989115   0.03582344 
C   -2.83379702   1.27371397   0.66803845 
H   -3.87445858   1.20561257   0.98308142 
H   -2.75574168   2.10444132  -0.04510292 
H   -2.20243159   1.50504498   1.52603735 
C   -3.50187144  -0.46506464  -1.03049527 
H   -2.47519990  -0.86264145   0.82499113 
H   -4.44480875  -0.58790499  -0.52433100 
H   -3.66951915   0.30675853  -1.79340823 
H   -3.25380088  -1.40722976  -1.52679574 
C   -0.83741051   0.25056469  -1.73430837 
C    0.52647373   0.17912653  -2.21625905 
H   -1.68478870   0.55617051  -2.36524997 
C    1.66809243   0.14559548  -1.40749617 
C    2.74231296  -0.10421430  -2.39817786 
S    0.72507518   0.24699575  -3.95022246 
C    2.40459268  -0.03291232  -3.74397240 
H    1.81263306   1.08831232  -0.36555070 
H    3.79449248  -0.24991556  -2.17253193 
H    3.05711756  -0.02718320  -4.63577157 
H   -0.96243567  -3.43048218   1.16513158 
H   -0.21267204  -2.03816176   3.31718869 
H    2.34762320  -1.23505987   2.99824311 
O    2.01329880   2.01484419   0.16462814 
O    0.37547147   1.12801865   1.48360792 
C    1.13671763   2.02728127   1.17175193 
C    0.91384344   3.38089084   1.90013009 
H    0.86140308   4.22762350   1.19811522 
H    1.74764889   3.62142182   2.56165182 
H   -0.00598085   3.47302433   2.54288584 
H    3.12303245  -2.06070006   0.57156654 
H    1.06135799  -3.39253838  -0.58265297 
*
