! EnGrad PBEh-3c
%output 
xyzfile=True 
end 
%scf 
maxiter 250 
end
%output
Print[P_Hirshfeld] = 1
end
% maxcore
4000
*xyz 1 1
Sc   1.64199870  -1.45046867  -1.57013463 
C    0.51607553  -0.75186785   0.25397441 
N   -0.45025521  -1.41271041   0.91615367 
C   -0.91496850  -0.67028063   1.96327054 
C   -0.24179719   0.50119353   1.93770074 
N    0.63996630   0.42368755   0.89855755 
C    1.54018160   1.50320811   0.54133217 
H    1.97115383   1.94882726   1.43486985 
H    1.01395036   2.27260506  -0.01926641 
H    2.36201542   1.12170308  -0.06042458 
C   -0.96181519  -2.73423118   0.60207614 
H   -0.34243497  -3.20842710  -0.15497886 
H   -1.98039150  -2.66590054   0.22617761 
H   -0.94391537  -3.35679778   1.49360025 
H   -1.67637668  -1.02318747   2.63745594 
H   -0.31358267   1.35618041   2.58765720 
C   -0.38747181   1.63387194  -2.72841440 
H   -0.78204250   1.10497177  -3.59347809 
H   -0.73415887   2.66479048  -2.76280531 
H   -0.77659134   1.16189523  -1.82714109 
H    0.82048089   1.58095554  -2.77619185 
*
