! EnGrad PBEh-3c
%output 
xyzfile=True 
end 
%scf 
maxiter 250 
end
%output
Print[P_Hirshfeld] = 1
end
% maxcore
4000
*xyz 1 1
Sc   1.63556561  -1.43958660  -1.56862746 
C    0.51193499  -0.74782113   0.24460442 
N   -0.44606023  -1.41314492   0.92068733 
C   -0.91900842  -0.67165343   1.96800642 
C   -0.23384023   0.49078934   1.95888761 
N    0.63194917   0.42690392   0.89997700 
C    1.53734800   1.51321694   0.54204282 
H    1.94696494   1.96281036   1.44241957 
H    1.00927099   2.26851846  -0.03192793 
H    2.36495286   1.12483565  -0.04450909 
C   -0.96571094  -2.73338037   0.60135649 
H   -0.35730847  -3.19631024  -0.17136754 
H   -1.99072892  -2.66306676   0.24235518 
H   -0.93339756  -3.36286877   1.48610916 
H   -1.66755007  -1.03463062   2.65205544 
H   -0.30719555   1.35085686   2.60385564 
C   -0.33640564   1.62017539  -2.74837773 
H   -0.78842559   1.12229459  -3.58241506 
H   -0.66116115   2.65359821  -2.77262007 
H   -0.73957141   1.18312370  -1.84115228 
H    0.70830573   1.54549555  -2.80145266 
*
