! EnGrad PBEh-3c
%output 
xyzfile=True 
end 
%scf 
maxiter 250 
end
%output
Print[P_Hirshfeld] = 1
end
% maxcore
4000
*xyz 1 1
Sc   1.63484118  -1.43724511  -1.56885452 
C    0.50751952  -0.74402342   0.24925261 
N   -0.44700673  -1.41417626   0.91991104 
C   -0.91686554  -0.67412725   1.96896892 
C   -0.23088023   0.48962075   1.95988433 
N    0.63289105   0.42835816   0.89973609 
C    1.53283406   1.51223202   0.54413322 
H    1.94077881   1.96670438   1.44458528 
H    1.00800568   2.26860075  -0.03611659 
H    2.36664924   1.12553738  -0.04117216 
C   -0.96607640  -2.73161394   0.60098149 
H   -0.36116697  -3.19331670  -0.17554062 
H   -1.99318450  -2.66208491   0.24665092 
H   -0.93067953  -3.36509723   1.48466773 
H   -1.66623252  -1.03769414   2.65551051 
H   -0.30498086   1.34925267   2.60853767 
C   -0.41049131   1.62493340  -2.74421451 
H   -0.78820957   1.12431794  -3.58366962 
H   -0.63636667   2.64812449  -2.77579817 
H   -0.72475189   1.18853091  -1.84706909 
H    0.75319610   1.53341748  -2.81048423 
*
