! EnGrad PBEh-3c
%output 
xyzfile=True 
end 
%scf 
maxiter 250 
end
%output
Print[P_Hirshfeld] = 1
end
% maxcore
4000
*xyz 1 1
Sc   1.63512904  -1.43703517  -1.56889813 
C    0.50775407  -0.74423825   0.24912958 
N   -0.44801620  -1.41331543   0.92011942 
C   -0.91656419  -0.67532077   1.97026194 
C   -0.23087541   0.49131521   1.95932046 
N    0.63244861   0.42802946   0.90115367 
C    1.53295674   1.51205043   0.54361415 
H    1.94015505   1.96673933   1.44449402 
H    1.00816468   2.26853634  -0.03631058 
H    2.36625247   1.12591637  -0.04069784 
C   -0.96606818  -2.73201816   0.60083973 
H   -0.36142587  -3.19315574  -0.17569029 
H   -1.99308222  -2.66187056   0.24696261 
H   -0.93048849  -3.36516771   1.48442643 
H   -1.66579443  -1.03742975   2.65478687 
H   -0.30448281   1.34823967   2.60841222 
C   -0.37870709   1.62286796  -2.74694457 
H   -0.79539768   1.11851365  -3.59360893 
H   -0.63988418   2.66047262  -2.77630161 
H   -0.73079032   1.18294714  -1.83554662 
H    0.73855371   1.53420045  -2.80961380 
*
