! EnGrad PBEh-3c
%output 
xyzfile=True 
end 
%scf 
maxiter 250 
end
%output
Print[P_Hirshfeld] = 1
end
% maxcore
4000
*xyz 1 1
Sc   1.63499118  -1.43450295  -1.56879967 
C    0.50673108  -0.74361988   0.24921403 
N   -0.45039359  -1.41186475   0.92092524 
C   -0.91402816  -0.67666058   1.97393401 
C   -0.23087611   0.49153509   1.96060431 
N    0.63152827   0.42814327   0.90418930 
C    1.53143494   1.51268396   0.54329788 
H    1.93404577   1.96888260   1.44542335 
H    1.00776696   2.26786798  -0.03933915 
H    2.36601663   1.12722884  -0.03731236 
C   -0.96659207  -2.73227531   0.60056021 
H   -0.36432483  -3.19075944  -0.17902343 
H   -1.99441736  -2.66073504   0.25057847 
H   -0.92818524  -3.36673276   1.48270022 
H   -1.66432524  -1.03888819   2.65544053 
H   -0.30158396   1.34534558   2.61147733 
C   -0.31919216   1.61664055  -2.75344480 
H   -0.81097340   1.10973613  -3.61163933 
H   -0.63167722   2.68186039  -2.77932684 
H   -0.73425663   1.17619235  -1.81750463 
H    0.69810126   1.53029706  -2.81202172 
*
