! EnGrad PBEh-3c
%output 
xyzfile=True 
end 
%scf 
maxiter 250 
end
%output
Print[P_Hirshfeld] = 1
end
% maxcore
4000
*xyz 1 1
Sc   1.63519515  -1.43237875  -1.56858718 
C    0.50542595  -0.74310691   0.25042247 
N   -0.45231363  -1.41084819   0.92096673 
C   -0.91140732  -0.67774572   1.97750876 
C   -0.23161315   0.49181990   1.96141803 
N    0.63177345   0.42783990   0.90584420 
C    1.52938309   1.51304659   0.54368705 
H    1.92873991   1.97054598   1.44571650 
H    1.00749101   2.26714508  -0.04190173 
H    2.36585281   1.12825757  -0.03462294 
C   -0.96708836  -2.73195889   0.60055141 
H   -0.36656494  -3.18877538  -0.18182132 
H   -1.99542322  -2.65977337   0.25357215 
H   -0.92615384  -3.36817519   1.48125655 
H   -1.66349007  -1.03980682   2.65558292 
H   -0.29869629   1.34298432   2.61436896 
C   -0.34142695   1.61730714  -2.75573980 
H   -0.81698719   1.10708486  -3.61841184 
H   -0.61945104   2.68988322  -2.78189404 
H   -0.73104195   1.17394166  -1.81125694 
H    0.71745431   1.52320107  -2.81670407 
*
