! EnGrad PBEh-3c
%output 
xyzfile=True 
end 
%scf 
maxiter 250 
end
%output
Print[P_Hirshfeld] = 1
end
% maxcore
4000
*xyz 1 1
Sc   1.63561403  -1.42668612  -1.56766663 
C    0.50258337  -0.74207068   0.25147841 
N   -0.45441100  -1.40978536   0.92235560 
C   -0.90759615  -0.68047882   1.98327900 
C   -0.23069917   0.49062623   1.96516675 
N    0.63065264   0.42743250   0.90840462 
C    1.52475274   1.51412645   0.54430302 
H    1.91575601   1.97610363   1.44718009 
H    1.00591719   2.26477055  -0.04837991 
H    2.36577912   1.13063269  -0.02730215 
C   -0.96813052  -2.73033462   0.60026247 
H   -0.37282615  -3.18300759  -0.18873216 
H   -1.99909132  -2.65779543   0.26107486 
H   -0.92059218  -3.37173153   1.47764551 
H   -1.66228862  -1.04266252   2.65821927 
H   -0.29173046   1.33913030   2.62336562 
C   -0.34290114   1.61453851  -2.76299502 
H   -0.83133219   1.10662483  -3.62616527 
H   -0.59079583   2.70019835  -2.78810959 
H   -0.72402275   1.17403197  -1.80609373 
H    0.71476467   1.50715330  -2.82723784 
*
