! EnGrad PBEh-3c
%output 
xyzfile=True 
end 
%scf 
maxiter 250 
end
%output
Print[P_Hirshfeld] = 1
end
% maxcore
4000
*xyz 0 1
Lu   0.11886369   0.30868222  -0.19781712 
C    0.22129171   1.09040804   2.24524909 
C    1.13101579   0.01391561   2.14778009 
C    2.19598623   0.40390459   1.31312582 
C    1.95866395   1.73381718   0.90696033 
C    0.74528357   2.15766733   1.49402800 
H    2.61484442   2.33804112   0.29610480 
H    0.31429299   3.14486091   1.41828356 
H   -0.67681240   1.11904449   2.84455172 
H    1.07393411  -0.90824355   2.70752318 
H    3.05718518  -0.19611169   1.06026668 
C    1.09217401  -0.02755237  -2.56795485 
C   -0.24487156  -0.47462698  -2.63783923 
C    0.90020965  -1.89029081  -1.27404026 
C    1.80163787  -0.90779929  -1.72657068 
H    1.51216201   0.81064992  -3.10635570 
C   -0.37037800  -1.61795401  -1.82942673 
H   -1.02342227  -0.04657537  -3.25009210 
H    2.85548313  -0.85683276  -1.49681105 
H    1.17205069  -2.74362989  -0.66907364 
H   -1.26895171  -2.20791308  -1.71535797 
C   -2.17264139  -1.73233359   1.40720577 
H   -2.34244508  -1.55171867   2.46652588 
H   -2.88781101  -2.44625253   1.00379418 
H   -2.29519436  -0.80455444   0.86223567 
C   -1.88902213   1.66286534  -0.65059756 
H   -0.95049256  -2.11148553   1.25163479 
H   -1.59706842   2.49736176  -1.30103262 
H   -2.39010832   2.13098090   0.20302662 
H   -2.65586981   1.11166946  -1.20531990 
*
