! EnGrad PBEh-3c
%output 
xyzfile=True 
end 
%scf 
maxiter 250 
end
%output
Print[P_Hirshfeld] = 1
end
% maxcore
4000
*xyz 0 1
Lu   0.09643545   0.37258630  -0.22666521 
C    0.25321224   1.07189261   2.28488259 
C    1.16561328   0.00139034   2.15040923 
C    2.20640565   0.42114752   1.30219883 
C    1.93598369   1.74655222   0.90263139 
C    0.73357467   2.15122089   1.52418133 
H    2.57248838   2.35898037   0.27872545 
H    0.26225402   3.11968352   1.43156375 
H   -0.63840501   1.07309888   2.89663379 
H    1.11457224  -0.94928142   2.66325067 
H    3.07488631  -0.16064865   1.03284341 
C    1.06649156  -0.02307182  -2.56459657 
C   -0.25957195  -0.50054157  -2.63870184 
C    0.92085541  -1.88946767  -1.26487159 
C    1.79737485  -0.88968692  -1.72625207 
H    1.46846942   0.82555795  -3.10167703 
C   -0.35170330  -1.64718963  -1.82892375 
H   -1.06315663  -0.06560846  -3.21341094 
H    2.85216770  -0.82238722  -1.50574482 
H    1.19029350  -2.73158596  -0.64385279 
H   -1.22697914  -2.26780348  -1.70240802 
C   -2.18452696  -1.68872052   1.38287763 
H   -2.35330877  -1.51059115   2.44499450 
H   -2.83736886  -2.46835222   1.00697134 
H   -2.35701115  -0.76416017   0.82422232 
C   -1.84028876   1.65166507  -0.66559116 
H   -1.13527978  -2.05212955   1.25837811 
H   -1.54056844   2.49463821  -1.31073977 
H   -2.34262427   2.11126875   0.19666642 
H   -2.61974506   1.12554607  -1.23446917 
*
