! EnGrad PBEh-3c
%output 
xyzfile=True 
end 
%scf 
maxiter 250 
end
%output
Print[P_Hirshfeld] = 1
end
% maxcore
4000
*xyz 0 1
Lu   0.10597394   0.36804920  -0.22656168 
C    0.25257009   1.06516474   2.28626853 
C    1.16802822  -0.00099492   2.14174568 
C    2.20705325   0.42629337   1.29562901 
C    1.93414396   1.75217318   0.90426025 
C    0.72696101   2.15088179   1.52652190 
H    2.56115556   2.36516675   0.27302288 
H    0.24996462   3.11254258   1.43403597 
H   -0.63032052   1.06260791   2.90790152 
H    1.11819213  -0.95734274   2.64357729 
H    3.07681049  -0.15278647   1.02303044 
C    1.06204313  -0.02197771  -2.56798495 
C   -0.26580359  -0.50209223  -2.63304509 
C    0.92174765  -1.88202977  -1.26003829 
C    1.79622628  -0.88268942  -1.72617703 
H    1.45736605   0.82992389  -3.10090108 
C   -0.34974257  -1.64861138  -1.82383165 
H   -1.07143273  -0.06886522  -3.20445669 
H    2.85000375  -0.80996681  -1.50435836 
H    1.19253895  -2.72074611  -0.63373648 
H   -1.22047128  -2.27859208  -1.69632692 
C   -2.20144854  -1.67820717   1.38223749 
H   -2.36391452  -1.49917155   2.41642226 
H   -2.83799386  -2.44729049   1.01425225 
H   -2.37620215  -0.78533973   0.83278758 
C   -1.82332577   1.64724457  -0.67125504 
H   -1.14095287  -2.02786970   1.25264197 
H   -1.52895662   2.49666694  -1.31246227 
H   -2.32175459   2.10115931   0.19689983 
H   -2.60769855   1.12540300  -1.23954124 
*
