! EnGrad PBEh-3c
%output 
xyzfile=True 
end 
%scf 
maxiter 250 
end
%output
Print[P_Hirshfeld] = 1
end
% maxcore
4000
*xyz 0 1
Lu   0.05508017   0.37192475  -0.22010889 
C    0.24762000   1.08394677   2.27628317 
C    1.15468794   0.00689704   2.15673802 
C    2.20552969   0.41407872   1.31607635 
C    1.94816201   1.73742813   0.90474553 
C    0.74104083   2.15428114   1.51013522 
H    2.59192216   2.34850917   0.29071880 
H    0.28876660   3.13090491   1.42759672 
H   -0.65283439   1.09446519   2.86578326 
H    1.10026952  -0.93142922   2.69487879 
H    3.06742222  -0.17689443   1.04803867 
C    1.08008685  -0.02645742  -2.56557438 
C   -0.25077871  -0.49088282  -2.64094378 
C    0.91543260  -1.89640077  -1.27301368 
C    1.80117368  -0.90531344  -1.73117989 
H    1.48840979   0.81627510  -3.10322533 
C   -0.35385069  -1.63992131  -1.83705273 
H   -1.04407085  -0.05803676  -3.23185674 
H    2.85319819  -0.84230009  -1.50477150 
H    1.18544514  -2.74760281  -0.65748100 
H   -1.24330918  -2.23646431  -1.71078275 
C   -2.19385817  -1.69497826   1.39315331 
H   -2.33424847  -1.54445450   2.42706666 
H   -2.82294306  -2.44814939   1.02017631 
H   -2.31243044  -0.79748957   0.84926506 
C   -1.85352917   1.64824859  -0.65110236 
H   -1.09550109  -2.08368935   1.26451547 
H   -1.57341989   2.48933599  -1.30137373 
H   -2.37186403   2.12309910   0.18536095 
H   -2.63454924   1.13040346  -1.21595685 
*
