! EnGrad PBEh-3c
%output 
xyzfile=True 
end 
%scf 
maxiter 250 
end
%output
Print[P_Hirshfeld] = 1
end
% maxcore
4000
*xyz 0 1
Lu   0.07602159   0.37924371  -0.22667997 
C    0.25587821   1.07702957   2.28276780 
C    1.16291740   0.00207978   2.15694838 
C    2.20628638   0.41871179   1.30886106 
C    1.93874851   1.74134666   0.90265559 
C    0.73729473   2.15312924   1.52057302 
H    2.58078072   2.35498201   0.28353315 
H    0.27254900   3.12418382   1.43003744 
H   -0.64506904   1.08127910   2.88577623 
H    1.11085903  -0.94246612   2.67784594 
H    3.07299506  -0.16698208   1.03972527 
C    1.07120574  -0.02447762  -2.56291786 
C   -0.25617316  -0.49842600  -2.64252424 
C    0.92091249  -1.89664851  -1.26757491 
C    1.79750386  -0.89641892  -1.72851610 
H    1.47651563   0.82209982  -3.10247602 
C   -0.35069303  -1.64475043  -1.83393501 
H   -1.05587188  -0.06303523  -3.22025281 
H    2.85385078  -0.83141566  -1.50632250 
H    1.18865502  -2.73922869  -0.65099342 
H   -1.23290667  -2.25726992  -1.70638408 
C   -2.15441850  -1.69522888   1.38507744 
H   -2.34552959  -1.52314675   2.45305379 
H   -2.83564610  -2.47853960   1.00560454 
H   -2.34109562  -0.75887395   0.82353901 
C   -1.84807745   1.65193850  -0.66030947 
H   -1.14845420  -2.06322775   1.26487915 
H   -1.55249174   2.49083598  -1.30684785 
H   -2.35665099   2.11728960   0.19212595 
H   -2.62599221   1.12842906  -1.22764791 
*
