! EnGrad PBEh-3c
%output 
xyzfile=True 
end 
%scf 
maxiter 250 
end
%output
Print[P_Hirshfeld] = 1
end
% maxcore
4000
*xyz 0 1
Lu   0.08751898   0.37733040  -0.22749238 
C    0.25501921   1.07418751   2.28486046 
C    1.16507597   0.00155746   2.15458973 
C    2.20630413   0.41990648   1.30544745 
C    1.93703571   1.74346632   0.90185321 
C    0.73538478   2.15289719   1.52333447 
H    2.57661068   2.35693280   0.28109500 
H    0.26715637   3.12172656   1.43080540 
H   -0.64156204   1.07694599   2.89194944 
H    1.11347722  -0.94632562   2.67106563 
H    3.07436374  -0.16360892   1.03650375 
C    1.06878301  -0.02322225  -2.56317337 
C   -0.25814958  -0.50056388  -2.64144542 
C    0.92105915  -1.89359593  -1.26657462 
C    1.79731159  -0.89297866  -1.72689588 
H    1.47236343   0.82377978  -3.10197322 
C   -0.35077719  -1.64620380  -1.83159568 
H   -1.05985451  -0.06447197  -3.21657849 
H    2.85325277  -0.82712300  -1.50642745 
H    1.18970123  -2.73603796  -0.64768718 
H   -1.22962493  -2.26368301  -1.70461295 
C   -2.17909050  -1.68581267   1.38655478 
H   -2.34804645  -1.51653377   2.45327363 
H   -2.83671529  -2.47992851   1.00354525 
H   -2.34871436  -0.75612504   0.82036028 
C   -1.84581168   1.65277882  -0.66314934 
H   -1.13494180  -2.06296966   1.26084751 
H   -1.54542435   2.49284019  -1.30937208 
H   -2.35032775   2.11477871   0.19514398 
H   -2.62332639   1.12670406  -1.23183833 
*
