! EnGrad PBEh-3c
%output 
xyzfile=True 
end 
%scf 
maxiter 250 
end
%output
Print[P_Hirshfeld] = 1
end
% maxcore
4000
*xyz 0 1
Pd   1.62710321   0.98482258  -0.16371490 
O   -0.25068702   2.12433257  -0.27176883 
O   -0.13177937  -0.02119424   0.01123478 
O    3.29296920   2.12407268  -0.17844553 
O    3.35795069   0.06252145   0.39805284 
C   -0.83794923   1.00085469  -0.17489190 
C   -2.32175400   0.91797808  -0.28441794 
H   -2.78761690   1.85274310   0.01846247 
H   -2.71011971   0.09344930   0.30849301 
H   -2.59178162   0.73481027  -1.32602187 
C    3.99279601   1.11760642   0.12830049 
C    5.47585270   1.21834794   0.20541389 
H    5.87616654   0.50455373   0.92460144 
H    5.80068666   2.22280660   0.46583632 
H    5.90767879   0.98689209  -0.76984795 
C    1.83650399   1.25168506  -3.52089801 
C    0.56784245   0.68381462  -3.54830855 
C    2.96194213   0.45545962  -3.35067413 
C    0.43500365  -0.68306147  -3.34043234 
C    1.54669568  -1.46895621  -3.07354505 
C    2.81303486  -0.90275592  -3.09418723 
H   -0.54998695  -1.13220757  -3.36986938 
H    1.43408567  -2.52715461  -2.86708728 
H    1.72691698   2.76153794  -3.60365371 
H   -0.30854122   1.29155517  -3.73243260 
H    3.95606263   0.87797374  -3.42801329 
H    3.68252317  -1.51899864  -2.90883578 
*
