! EnGrad PBEh-3c
%output 
xyzfile=True 
end 
%scf 
maxiter 250 
end
%output
Print[P_Hirshfeld] = 1
end
% maxcore
4000
*xyz 0 1
Pd   1.59156579   1.03420805  -0.15337863 
O   -0.22469974   2.08409924  -0.28791451 
O   -0.11399070  -0.04375266  -0.00364291 
O    3.28517454   2.12023596  -0.19937121 
O    3.37222429   0.05704337   0.40333265 
C   -0.82591569   1.05217836  -0.17382457 
C   -2.32131023   0.91574137  -0.28065858 
H   -2.78280379   1.85282774   0.03276314 
H   -2.70319809   0.09232303   0.31233792 
H   -2.59491155   0.74255358  -1.32011408 
C    3.99796962   1.13793478   0.15572667 
C    5.48538846   1.23091239   0.22089439 
H    5.87497512   0.54721796   0.95716490 
H    5.79385736   2.25098645   0.46314967 
H    5.91742824   0.98742058  -0.74394416 
C    1.79665190   1.39523957  -3.51986457 
C    0.57858512   0.67198163  -3.54567458 
C    2.97056679   0.45975289  -3.34457806 
C    0.42354499  -0.69269225  -3.35614272 
C    1.53875545  -1.48641658  -3.10467227 
C    2.79688422  -0.92079700  -3.10182547 
H   -0.55651881  -1.13339319  -3.39962629 
H    1.41907611  -2.54087562  -2.92961780 
H    1.75516276   2.59707761  -3.56694734 
H   -0.30218634   1.29018009  -3.72429335 
H    3.95668076   0.85680798  -3.41598115 
H    3.67217375  -1.54463207  -2.92026391 
*
