! EnGrad PBEh-3c
%output 
xyzfile=True 
end 
%scf 
maxiter 250 
end
%output
Print[P_Hirshfeld] = 1
end
% maxcore
4000
*xyz 0 1
Pd   1.61485670   1.06911692  -0.04225205 
O   -0.12300220   2.07626773  -0.39844525 
O   -0.09003027  -0.03619206  -0.00812674 
O    3.29029033   2.19035252  -0.22554697 
O    3.35631408   0.14669935   0.41419226 
C   -0.77154449   0.99780073  -0.22126182 
C   -2.26614148   0.94780503  -0.25305323 
H   -2.74246910   1.85844388   0.10969103 
H   -2.63077879   0.10404321   0.32957857 
H   -2.59309776   0.79274355  -1.28100251 
C    3.98745434   1.21070126   0.16532472 
C    5.46810793   1.34458371   0.31984837 
H    5.86839860   0.76012638   1.14820030 
H    5.74547209   2.38817006   0.44971790 
H    5.94558117   0.98222261  -0.58911478 
C    1.80212912   1.17427195  -3.41181182 
C    0.52267886   0.66896717  -3.51786954 
C    2.91729091   0.39609810  -3.27850967 
C    0.36692890  -0.71105546  -3.47421102 
C    1.47281749  -1.51076778  -3.29757893 
C    2.73735803  -0.97024833  -3.19135874 
H   -0.62230949  -1.13290667  -3.57821279 
H    1.37062301  -2.55644019  -3.25136131 
H    1.98243908   2.21348532  -3.44947359 
H   -0.34175519   1.32313580  -3.66687316 
H    3.91947595   0.86420965  -3.27881093 
H    3.61268482  -1.56864471  -3.04012930 
*
