! EnGrad PBEh-3c
%output 
xyzfile=True 
end 
%scf 
maxiter 250 
end
%output
Print[P_Hirshfeld] = 1
end
% maxcore
4000
*xyz 0 1
Pd   1.61349689   1.06098514  -0.04953540 
O   -0.13469179   2.07991814  -0.37973427 
O   -0.09412967  -0.03464080  -0.01739966 
O    3.28805345   2.17674704  -0.22843487 
O    3.35430257   0.13196384   0.41253397 
C   -0.77856196   1.00535070  -0.21788947 
C   -2.27581868   0.94383693  -0.25500351 
H   -2.75522615   1.85693942   0.09859480 
H   -2.64586537   0.10105212   0.32716846 
H   -2.59277040   0.78408561  -1.28521724 
C    3.98633869   1.19691354   0.16017043 
C    5.47027766   1.32821957   0.30645109 
H    5.87594751   0.72597616   1.12072872 
H    5.75617445   2.36990508   0.45245652 
H    5.94104939   0.98298492  -0.61424009 
C    1.80426213   1.18171338  -3.42284856 
C    0.52464420   0.66840741  -3.52156603 
C    2.92971189   0.41134415  -3.28633491 
C    0.38408146  -0.70399868  -3.45653341 
C    1.48852933  -1.49726644  -3.26626656 
C    2.74246285  -0.94399417  -3.17945534 
H   -0.59422195  -1.11956119  -3.54830648 
H    1.37656395  -2.55150656  -3.20307467 
H    1.94820673   2.23321055  -3.46358447 
H   -0.33919133   1.31642535  -3.67862653 
H    3.92756547   0.85831065  -3.30742402 
H    3.59740835  -1.54263903  -3.02272657 
*
