! EnGrad PBEh-3c
%output 
xyzfile=True 
end 
%scf 
maxiter 250 
end
%output
Print[P_Hirshfeld] = 1
end
% maxcore
4000
*xyz 0 1
Pd   1.61164541   1.08213775  -0.05041999 
O   -0.11755546   2.06744808  -0.41339703 
O   -0.08463855  -0.03877504   0.00841175 
O    3.29171531   2.20281380  -0.21830641 
O    3.36484332   0.15556704   0.41799752 
C   -0.76658067   0.99788362  -0.21968043 
C   -2.26000524   0.94852932  -0.25331709 
H   -2.72498918   1.86061564   0.11747565 
H   -2.61659551   0.10607008   0.33165854 
H   -2.59412753   0.80047430  -1.28021261 
C    3.98956066   1.22504158   0.17646108 
C    5.46703004   1.35748465   0.32903637 
H    5.85606618   0.78755531   1.16978443 
H    5.73576378   2.40209387   0.44663313 
H    5.95182474   0.98128553  -0.57028057 
C    1.80018334   1.19804132  -3.40788225 
C    0.51821092   0.67099976  -3.51857222 
C    2.91185411   0.38133402  -3.27349718 
C    0.34506578  -0.71461465  -3.48882301 
C    1.46348560  -1.51797952  -3.32270284 
C    2.74608961  -0.99448968  -3.20029409 
H   -0.64896083  -1.15036465  -3.60325743 
H    1.36096951  -2.58609886  -3.28892630 
H    2.00197229   2.22779926  -3.43939280 
H   -0.33404037   1.32427570  -3.65379742 
H    3.90117231   0.85947365  -3.24984340 
H    3.63206823  -1.60900214  -3.05485038 
*
