! EnGrad PBEh-3c
%output 
xyzfile=True 
end 
%scf 
maxiter 250 
end
%output
Print[P_Hirshfeld] = 1
end
% maxcore
4000
*xyz 0 1
Pd   1.62944210   1.08398683  -0.08450454 
O   -0.12351858   2.06000172  -0.45090256 
O   -0.06316104  -0.02277013   0.06060734 
O    3.28604062   2.23317118  -0.19331288 
O    3.37232442   0.18177612   0.43630925 
C   -0.75593757   1.00124999  -0.21570246 
C   -2.24800144   0.94300588  -0.25249922 
H   -2.67396492   1.86997732   0.13122229 
H   -2.59846434   0.10001577   0.33784209 
H   -2.59289657   0.81814423  -1.28110779 
C    3.98989908   1.25832782   0.19809213 
C    5.46771470   1.39133405   0.35010720 
H    5.82141014   0.84362560   1.22351799 
H    5.73144258   2.44533703   0.43828493 
H    5.96939289   0.98040374  -0.53046908 
C    1.80467474   1.19951440  -3.40209833 
C    0.52503399   0.65611232  -3.52734990 
C    2.89992610   0.35099639  -3.25766904 
C    0.36139651  -0.72582567  -3.52495684 
C    1.46498641  -1.56046363  -3.37218726 
C    2.73454033  -1.02391919  -3.23445159 
H   -0.62495933  -1.14590614  -3.64916956 
H    1.32123450  -2.63997282  -3.37386829 
H    1.98273944   2.26977502  -3.40824802 
H   -0.32467324   1.33049543  -3.62526878 
H    3.86812260   0.80567718  -3.17276556 
H    3.58132320  -1.67117900  -3.10688473 
*
