! EnGrad PBEh-3c
%output 
xyzfile=True 
end 
%scf 
maxiter 250 
end
%output
Print[P_Hirshfeld] = 1
end
% maxcore
4000
*xyz 0 1
Pd   1.59362111   1.03114712  -0.15224635 
O   -0.21883196   2.09743313  -0.28944900 
O   -0.11660556  -0.03646009  -0.00444665 
O    3.28584375   2.12126751  -0.19918535 
O    3.37237101   0.06040723   0.40290193 
C   -0.83006857   1.03160964  -0.17258760 
C   -2.32001387   0.91818683  -0.28007511 
H   -2.78321709   1.85246720   0.03284934 
H   -2.70272666   0.09205954   0.31264952 
H   -2.59483714   0.74261619  -1.32029060 
C    3.99572392   1.13512869   0.15499198 
C    5.48443595   1.23343189   0.22167501 
H    5.87556429   0.54703719   0.95849116 
H    5.79381450   2.25085457   0.46299812 
H    5.91769959   0.98711744  -0.74410135 
C    1.80259938   1.38072521  -3.51724408 
C    0.57836876   0.67936008  -3.54619845 
C    2.96071084   0.46456335  -3.34475976 
C    0.42683524  -0.69297345  -3.35651308 
C    1.53607026  -1.48566951  -3.10545249 
C    2.79884237  -0.91621690  -3.10319315 
H   -0.55735764  -1.13351481  -3.40022330 
H    1.41884924  -2.54202372  -2.93031885 
H    1.75562107   2.59388327  -3.56689640 
H   -0.30239148   1.28893362  -3.72392823 
H    3.95892350   0.85711578  -3.41548378 
H    3.67125298  -1.54432443  -2.92082526 
*
