! EnGrad PBEh-3c
%output 
xyzfile=True 
end 
%scf 
maxiter 250 
end
%output
Print[P_Hirshfeld] = 1
end
% maxcore
4000
*xyz 0 1
Pd   1.58904489   1.03777157  -0.14849284 
O   -0.20885926   2.10034367  -0.29420977 
O   -0.11637031  -0.03260601  -0.00844020 
O    3.28500691   2.12179270  -0.20327975 
O    3.37506434   0.06319311   0.40362595 
C   -0.82924676   1.02253053  -0.17170033 
C   -2.31851368   0.92023441  -0.27845154 
H   -2.78263546   1.85217827   0.03607581 
H   -2.70067215   0.09164696   0.31374465 
H   -2.59535462   0.74439075  -1.31915344 
C    3.99433752   1.13653375   0.15941774 
C    5.48501004   1.23915358   0.22604828 
H    5.87610793   0.55597748   0.96715788 
H    5.79232774   2.25686516   0.46226832 
H    5.92007356   0.98684806  -0.73867637 
C    1.80205955   1.39154841  -3.51339289 
C    0.58045137   0.68527948  -3.54605894 
C    2.95070794   0.47187884  -3.34361887 
C    0.42798270  -0.69406693  -3.36072667 
C    1.53200428  -1.48831901  -3.11303341 
C    2.79708860  -0.91379915  -3.10681353 
H   -0.55952669  -1.13374406  -3.40739940 
H    1.41533432  -2.54645809  -2.94458513 
H    1.76248933   2.55396818  -3.55905133 
H   -0.30169620   1.28730141  -3.72175290 
H    3.96101397   0.85285964  -3.41210543 
H    3.66770849  -1.54900728  -2.92415296 
*
