! EnGrad PBEh-3c
%output 
xyzfile=True 
end 
%scf 
maxiter 250 
end
%output
Print[P_Hirshfeld] = 1
end
% maxcore
4000
*xyz 0 1
Pd   1.57363310   1.06726428  -0.12201640 
O   -0.16869108   2.09299063  -0.31813775 
O   -0.11526102  -0.01707582  -0.02620752 
O    3.28147974   2.12761764  -0.22248834 
O    3.38145968   0.07755421   0.40700397 
C   -0.81140358   1.00144020  -0.17590677 
C   -2.30921187   0.92818524  -0.26836097 
H   -2.77946628   1.85211296   0.05412495 
H   -2.68925683   0.09114419   0.31866254 
H   -2.59682273   0.75437008  -1.31191730 
C    3.98752986   1.14895936   0.17373956 
C    5.48301371   1.27025752   0.25114328 
H    5.88067856   0.60311354   1.01503986 
H    5.78443370   2.29050555   0.45899365 
H    5.93151406   0.98463280  -0.70925243 
C    1.80513324   1.36985553  -3.48449522 
C    0.59292488   0.71876921  -3.54261723 
C    2.90068677   0.52055981  -3.33579919 
C    0.43055803  -0.68116575  -3.38823977 
C    1.52129862  -1.49765420  -3.15363902 
C    2.77964409  -0.88633407  -3.13120774 
H   -0.56744719  -1.13165858  -3.44641102 
H    1.39647031  -2.57136771  -3.02062636 
H    1.80635316   2.35291105  -3.52045809 
H   -0.30498174   1.28061966  -3.70998839 
H    3.96159727   0.83124925  -3.39031066 
H    3.64393507  -1.56372746  -2.94579957 
*
