! EnGrad PBEh-3c
%output 
xyzfile=True 
end 
%scf 
maxiter 250 
end
%output
Print[P_Hirshfeld] = 1
end
% maxcore
4000
*xyz 0 1
Pd   1.57971785   1.06571309  -0.11214036 
O   -0.16236926   2.09501660  -0.32474594 
O   -0.10805242  -0.02602303  -0.02577548 
O    3.28160256   2.13298735  -0.22437680 
O    3.37680258   0.08194327   0.40807596 
C   -0.81609662   1.00656435  -0.18268885 
C   -2.30471339   0.92953809  -0.26675488 
H   -2.77793006   1.85276068   0.05929304 
H   -2.68537494   0.09201082   0.31967908 
H   -2.59603952   0.75757278  -1.30823109 
C    3.98744987   1.15514758   0.17077726 
C    5.48143026   1.27547424   0.25745563 
H    5.88135369   0.61661353   1.02697111 
H    5.78224338   2.30083519   0.45857416 
H    5.93234567   0.98457223  -0.69868368 
C    1.80489407   1.32018240  -3.47544012 
C    0.57804315   0.70495934  -3.53980845 
C    2.91558638   0.50450486  -3.32855095 
C    0.42653577  -0.67371783  -3.39701251 
C    1.52087698  -1.49264207  -3.16585297 
C    2.77503704  -0.88288427  -3.13778692 
H   -0.56494734  -1.12647506  -3.45718848 
H    1.39325343  -2.57289720  -3.04074995 
H    1.82247516   2.35331246  -3.51432938 
H   -0.30861312   1.28399843  -3.70691788 
H    3.95190450   0.83165028  -3.38233576 
H    3.63197434  -1.55515300  -2.95514778 
*
