! EnGrad PBEh-3c
%output 
xyzfile=True 
end 
%scf 
maxiter 250 
end
%output
Print[P_Hirshfeld] = 1
end
% maxcore
4000
*xyz 0 1
Pd   1.58733633   1.06768943  -0.08963817 
O   -0.15004859   2.08890125  -0.34056296 
O   -0.10176823  -0.03072389  -0.02861495 
O    3.28186558   2.14406205  -0.23039609 
O    3.37006848   0.09406172   0.41004356 
C   -0.80539194   1.01155062  -0.19480607 
C   -2.29767787   0.93338575  -0.26213515 
H   -2.77384916   1.85370964   0.07175048 
H   -2.67565131   0.09387232   0.32217703 
H   -2.59489647   0.76527016  -1.30033610 
C    3.98556589   1.16774562   0.16824815 
C    5.47857010   1.29117779   0.27329640 
H    5.88276686   0.64978428   1.05701932 
H    5.77624985   2.32469269   0.45706785 
H    5.93572357   0.98403318  -0.67392277 
C    1.80572901   1.24578759  -3.45559155 
C    0.55600284   0.68863223  -3.53434032 
C    2.92735302   0.48317589  -3.31471299 
C    0.41665214  -0.66839685  -3.41663287 
C    1.51665580  -1.48592460  -3.19574545 
C    2.76505078  -0.88161312  -3.15235045 
H   -0.56257793  -1.11709689  -3.48387392 
H    1.38495132  -2.57591972  -3.09127704 
H    1.86039799   2.30977863  -3.49623533 
H   -0.31656884   1.29031105  -3.69919280 
H    3.93856167   0.83115237  -3.36335595 
H    3.60744107  -1.54247048  -2.97616144 
*
