! EnGrad PBEh-3c
%output 
xyzfile=True 
end 
%scf 
maxiter 250 
end
%output
Print[P_Hirshfeld] = 1
end
% maxcore
4000
*xyz 0 1
Pd   1.60693848   1.05552020  -0.06925623 
O   -0.15226002   2.08266875  -0.35476347 
O   -0.09717039  -0.03785300  -0.02282165 
O    3.28510347   2.15944020  -0.22835280 
O    3.35736716   0.10996028   0.41104721 
C   -0.79143294   1.02055957  -0.20961991 
C   -2.29014533   0.93679433  -0.25978119 
H   -2.76733372   1.85521029   0.08257717 
H   -2.66418766   0.09739534   0.32376816 
H   -2.59286418   0.77285614  -1.29239060 
C    3.98647102   1.18023350   0.15851347 
C    5.47477195   1.30360617   0.28620317 
H    5.88105432   0.67999243   1.08144595 
H    5.76903578   2.34372196   0.45571152 
H    5.93571373   0.98417387  -0.64843804 
C    1.80069287   1.21669207  -3.44328298 
C    0.52248446   0.65675535  -3.52810581 
C    2.96053923   0.41801393  -3.29726803 
C    0.39622562  -0.68680240  -3.43282866 
C    1.51035769  -1.47867937  -3.22414940 
C    2.75918832  -0.91243832  -3.16171103 
H   -0.56299943  -1.10863841  -3.50837597 
H    1.38308529  -2.55977743  -3.13522320 
H    1.89830855   2.29865993  -3.48530156 
H   -0.32803391   1.30565222  -3.69203424 
H    3.92801390   0.84727343  -3.34185379 
H    3.58911881  -1.52280687  -2.99830073 
*
