! EnGrad PBEh-3c
%output 
xyzfile=True 
end 
%scf 
maxiter 250 
end
%output
Print[P_Hirshfeld] = 1
end
% maxcore
4000
*xyz 0 1
Pd   1.61085226   1.05772013  -0.05679639 
O   -0.14347564   2.07977430  -0.36697509 
O   -0.09591341  -0.03552301  -0.02233702 
O    3.28622571   2.16774837  -0.22999769 
O    3.35464026   0.12096462   0.41181631 
C   -0.78268748   1.01464149  -0.21505462 
C   -2.28345276   0.94044314  -0.25675961 
H   -2.76254233   1.85597311   0.09099210 
H   -2.65570962   0.09901793   0.32554472 
H   -2.59265332   0.77842873  -1.28826642 
C    3.98581501   1.18829250   0.15850941 
C    5.47231248   1.31657291   0.29704666 
H    5.87995248   0.70330457   1.10217936 
H    5.76319828   2.35792091   0.45419225 
H    5.93844320   0.98352729  -0.63118714 
C    1.80346238   1.19816976  -3.43182213 
C    0.52033250   0.66298394  -3.52489995 
C    2.94699835   0.41407335  -3.29087071 
C    0.39083340  -0.69754730  -3.44497709 
C    1.50079619  -1.48422226  -3.24553104 
C    2.75060733  -0.92604309  -3.17092332 
H   -0.57364825  -1.11039042  -3.52825412 
H    1.37921534  -2.55557667  -3.17047098 
H    1.92387015   2.25307277  -3.47306594 
H   -0.33411405   1.31068229  -3.68573977 
H    3.92835132   0.85198132  -3.32591845 
H    3.58628445  -1.52673564  -3.01138856 
*
