! EnGrad PBEh-3c
%output 
xyzfile=True 
end 
%scf 
maxiter 250 
end
%output
Print[P_Hirshfeld] = 1
end
% maxcore
4000
*xyz 0 1
Lu   0.34963495   0.36105851  -0.22737419 
C    0.45897222   0.97717375   2.51009023 
C    1.42023064  -0.02789703   2.22294909 
C    2.30926232   0.46273402   1.24343634 
C    1.93665090   1.80597669   1.00218594 
C    0.70177331   2.06095123   1.64577996 
H    2.47851183   2.49367649   0.37007074 
H    0.15494267   2.99174560   1.66515531 
H   -0.33340243   0.93080826   3.24405761 
H    1.46422561  -1.00923626   2.67728132 
H    3.20545992  -0.02761118   0.89584333 
C    1.00062471  -0.10047367  -2.60305630 
C   -0.30746444  -0.63078047  -2.54961018 
C    1.06845299  -1.95855462  -1.30549044 
C    1.83235268  -0.85958151  -1.75062862 
H    1.30094616   0.77560695  -3.15803906 
C   -0.19568281  -1.89769439  -1.94943375 
H   -1.16200045  -0.31248379  -3.12683080 
H    2.88656269  -0.71028165  -1.57367077 
H    1.41914616  -2.76682227  -0.67660085 
H   -1.00723449  -2.61162001  -1.88342048 
C   -2.81254542  -1.59781223   1.42793089 
H   -2.61170702  -1.40908838   2.48090741 
H   -2.98142895  -2.64573932   1.17568013 
H   -3.00128568  -0.77381586   0.75025884 
C   -1.91298650   1.76666317  -0.72859079 
H   -1.13816181  -1.35626402   0.91697430 
H   -1.42767297   2.54905115  -1.32209978 
H   -2.50928627   2.29221953   0.01917185 
H   -2.58690050   1.22809806  -1.39292982 
*
