! EnGrad PBEh-3c
%output 
xyzfile=True 
end 
%scf 
maxiter 250 
end
%output
Print[P_Hirshfeld] = 1
end
% maxcore
4000
*xyz 0 1
Lu   0.24994084   0.39015091  -0.23414421 
C    0.46959482   0.95657033   2.48470466 
C    1.39672502  -0.02837883   2.22500488 
C    2.32661871   0.48450049   1.27760143 
C    1.93815875   1.80963728   0.97742201 
C    0.74089359   2.07942705   1.68305705 
H    2.48820122   2.50065265   0.37325558 
H    0.16022415   2.99347537   1.65568151 
H   -0.33030006   0.93069539   3.24209182 
H    1.45950709  -1.00641200   2.67576868 
H    3.20631163  -0.03079606   0.89795063 
C    1.01057096  -0.07166728  -2.59240260 
C   -0.28149007  -0.66807595  -2.60865617 
C    1.05564032  -1.97844350  -1.31971634 
C    1.84051433  -0.86867321  -1.77753637 
H    1.30536055   0.77931121  -3.16440064 
C   -0.19403030  -1.87506395  -1.90181009 
H   -1.15638534  -0.30178676  -3.12574851 
H    2.89007426  -0.71296902  -1.57423380 
H    1.41699445  -2.76439267  -0.67847040 
H   -0.99519897  -2.61746620  -1.88678383 
C   -2.63936989  -1.58904119   1.40515439 
H   -2.62080268  -1.41058708   2.47667187 
H   -2.98596377  -2.62958393   1.16497312 
H   -3.07613952  -0.78481560   0.78442931 
C   -1.85608844   1.72930185  -0.71289730 
H   -1.28288666  -1.34447223   0.93199085 
H   -1.44318871   2.54645917  -1.32487389 
H   -2.51024559   2.27236826   0.03348506 
H   -2.59136667   1.21209504  -1.38691440 
*
