! EnGrad PBEh-3c
%output 
xyzfile=True 
end 
%scf 
maxiter 250 
end
%output
Print[P_Hirshfeld] = 1
end
% maxcore
4000
*xyz 0 1
Lu   0.17970836   0.40839305  -0.23639563 
C    0.45333771   0.95652917   2.47844739 
C    1.39876400  -0.03762377   2.21523899 
C    2.33735754   0.49434105   1.29803025 
C    1.93660013   1.80760998   0.96568988 
C    0.76637156   2.09283909   1.70413402 
H    2.49683215   2.50814081   0.37161005 
H    0.16567286   2.99365542   1.65119709 
H   -0.32281190   0.92892870   3.23339815 
H    1.45525024  -1.00554183   2.67540478 
H    3.20418424  -0.03109584   0.90155688 
C    1.01054086  -0.06229856  -2.58351372 
C   -0.26043387  -0.68550955  -2.64576783 
C    1.06710801  -1.97938666  -1.32651211 
C    1.84162230  -0.88018290  -1.78941431 
H    1.31040970   0.78767921  -3.17101085 
C   -0.21229841  -1.86342018  -1.87634969 
H   -1.15146085  -0.29625744  -3.12650556 
H    2.89209849  -0.71505151  -1.57479194 
H    1.41556088  -2.76507037  -0.67916823 
H   -0.98469373  -2.61722579  -1.88501785 
C   -2.50704314  -1.57625177   1.36600171 
H   -2.62295086  -1.41065893   2.47337191 
H   -2.97750263  -2.60701992   1.15887723 
H   -3.12602576  -0.80237572   0.81678964 
C   -1.82962138   1.70544618  -0.70173809 
H   -1.41241076  -1.34607723   0.95545022 
H   -1.45313798   2.54447987  -1.32730445 
H   -2.50022802   2.25165391   0.03637745 
H   -2.58520661   1.20564736  -1.37735091 
*
