! EnGrad PBEh-3c
%output 
xyzfile=True 
end 
%scf 
maxiter 250 
end
%output
Print[P_Hirshfeld] = 1
end
% maxcore
4000
*xyz 0 1
Lu   0.11472260   0.41764673  -0.23125377 
C    0.43467670   0.96729187   2.46506381 
C    1.40747727  -0.04154751   2.19416563 
C    2.34536029   0.49199722   1.30461303 
C    1.93738246   1.80357145   0.96149187 
C    0.77691555   2.10202302   1.71718451 
H    2.50533821   2.51457539   0.36628888 
H    0.17830341   2.99517869   1.65191615 
H   -0.32200801   0.92254148   3.22247471 
H    1.45001329  -1.01123858   2.67524729 
H    3.19954191  -0.02822575   0.90981986 
C    1.00713426  -0.06246941  -2.58274615 
C   -0.25237439  -0.69048001  -2.66516081 
C    1.08586479  -1.96589204  -1.32776077 
C    1.84560302  -0.89055795  -1.78752969 
H    1.31714934   0.79811751  -3.17384408 
C   -0.22969969  -1.84233536  -1.86334332 
H   -1.13906557  -0.29508432  -3.13345839 
H    2.89004983  -0.71880920  -1.57644572 
H    1.41648307  -2.76851132  -0.67953619 
H   -0.98144288  -2.61530544  -1.86980039 
C   -2.53832200  -1.56949099   1.36580514 
H   -2.59468707  -1.41327154   2.42850021 
H   -2.91278421  -2.54676364   1.14928389 
H   -3.15588707  -0.85369385   0.87360202 
C   -1.83230013   1.69824434  -0.70019802 
H   -1.49076434  -1.34201608   0.95921800 
H   -1.46174149   2.53528548  -1.32638231 
H   -2.46557470   2.21447625   0.02951968 
H   -2.55826466   1.20514029  -1.35764761 
*
