! EnGrad PBEh-3c
%output 
xyzfile=True 
end 
%scf 
maxiter 250 
end
%output
Print[P_Hirshfeld] = 1
end
% maxcore
4000
*xyz 0 1
Lu   0.09882613   0.41812388  -0.22879437 
C    0.43762701   0.96442734   2.45693291 
C    1.40217748  -0.04103519   2.19260890 
C    2.34551853   0.49339514   1.30372059 
C    1.93919250   1.80462851   0.95928019 
C    0.77908431   2.10337384   1.71808998 
H    2.50627674   2.51428171   0.36589160 
H    0.18235554   2.99788356   1.65275203 
H   -0.32526447   0.92018449   3.22074113 
H    1.44855950  -1.01155952   2.67355742 
H    3.20068072  -0.02854644   0.91150008 
C    1.00985703  -0.05997054  -2.58433441 
C   -0.25256613  -0.69080470  -2.66718572 
C    1.08191657  -1.96643541  -1.32618653 
C    1.84719966  -0.88784577  -1.78867899 
H    1.31840303   0.79864620  -3.17235297 
C   -0.22665196  -1.83642086  -1.85791692 
H   -1.13581354  -0.29439223  -3.13776767 
H    2.89029582  -0.71979132  -1.57675324 
H    1.41701619  -2.76808451  -0.68069445 
H   -0.98196699  -2.61420592  -1.86336316 
C   -2.54147077  -1.56383652   1.36799299 
H   -2.58528478  -1.41309510   2.42190531 
H   -2.89516557  -2.54070694   1.14311309 
H   -3.17323849  -0.86171400   0.88587623 
C   -1.82755402   1.69699764  -0.70213295 
H   -1.51206133  -1.34040989   0.95910970 
H   -1.46385682   2.53234416  -1.32607916 
H   -2.45720789   2.20521163   0.03198012 
H   -2.55270624   1.20241747  -1.35463062 
*
