! EnGrad PBEh-3c
%output 
xyzfile=True 
end 
%scf 
maxiter 250 
end
%output
Print[P_Hirshfeld] = 1
end
% maxcore
4000
*xyz 0 1
Lu   0.06810390   0.40802249  -0.21662855 
C    0.42954484   0.95612165   2.44688964 
C    1.39235821  -0.04451643   2.18210021 
C    2.33709826   0.49358768   1.29070584 
C    1.94405705   1.80800618   0.95862985 
C    0.78195506   2.10521148   1.70216176 
H    2.50800571   2.51130038   0.36244786 
H    0.19783933   3.01127526   1.65991700 
H   -0.33231187   0.91035133   3.20277836 
H    1.44259161  -1.00987413   2.66451848 
H    3.20726157  -0.02983890   0.91700314 
C    1.01569640  -0.06175197  -2.59071632 
C   -0.25092400  -0.67544564  -2.65623872 
C    1.07514386  -1.95523314  -1.31562821 
C    1.84171871  -0.87683473  -1.78588882 
H    1.32356227   0.80195884  -3.16556542 
C   -0.22632917  -1.83156464  -1.84765726 
H   -1.12733903  -0.29309682  -3.15959013 
H    2.89477146  -0.72175588  -1.57718256 
H    1.41938198  -2.76655075  -0.68541330 
H   -0.98145493  -2.59888651  -1.83298726 
C   -2.54878263  -1.53716081   1.36294050 
H   -2.54821884  -1.40826103   2.42827976 
H   -2.83387088  -2.54839328   1.11537740 
H   -3.24885814  -0.87088537   0.91602221 
C   -1.81162251   1.69609482  -0.71262536 
H   -1.57548557  -1.33799464   0.95955279 
H   -1.46627253   2.52668795  -1.32851530 
H   -2.42801635   2.17650700   0.04915560 
H   -2.53615890   1.18831849  -1.35069540 
*
