! EnGrad PBEh-3c
%output 
xyzfile=True 
end 
%scf 
maxiter 250 
end
%output
Print[P_Hirshfeld] = 1
end
% maxcore
4000
*xyz 0 1
Lu   0.08118888   0.39420225  -0.20998817 
C    0.43885016   0.95699186   2.43285798 
C    1.38436833  -0.04176018   2.17980844 
C    2.33191288   0.48734890   1.27755766 
C    1.94649488   1.80910867   0.95981803 
C    0.76869998   2.09680037   1.69366136 
H    2.50626643   2.50769542   0.36002538 
H    0.20451873   3.01855978   1.66460169 
H   -0.34392971   0.90544882   3.19986450 
H    1.44127687  -1.01039570   2.65946868 
H    3.20930331  -0.02902306   0.91844501 
C    1.01890378  -0.06097033  -2.59546778 
C   -0.26351684  -0.66667890  -2.63965061 
C    1.06682047  -1.95351119  -1.30520521 
C    1.84676532  -0.86710105  -1.77777458 
H    1.32443967   0.80111807  -3.15987602 
C   -0.21656784  -1.82409560  -1.85081167 
H   -1.12309940  -0.29435400  -3.16961749 
H    2.89210474  -0.72164962  -1.57803710 
H    1.42092344  -2.76333088  -0.68836554 
H   -0.98914066  -2.59353080  -1.81704431 
C   -2.56529079  -1.53584653   1.36554388 
H   -2.53341447  -1.40581019   2.43845384 
H   -2.81212106  -2.56055209   1.10627024 
H   -3.27897071  -0.86357268   0.91721148 
C   -1.80931261   1.69713910  -0.71702584 
H   -1.57537182  -1.33389993   0.95404447 
H   -1.46203386   2.53092332  -1.33333498 
H   -2.41774101   2.17078621   0.05915504 
H   -2.53262358   1.18183218  -1.35472702 
*
