! EnGrad PBEh-3c
%output 
xyzfile=True 
end 
%scf 
maxiter 250 
end
%output
Print[P_Hirshfeld] = 1
end
% maxcore
4000
*xyz 1 1
Ir   0.43688921  -0.70478675   0.96456280 
C   -0.04845302  -2.63930580   1.85460745 
C    1.04549867  -2.06898629   2.58810735 
C    1.68703059  -2.32120190   0.38041095 
C    0.36169549  -2.83170564   0.51444554 
C    2.10462993  -1.88323352   1.67178444 
N   -0.93193245   0.04210718  -0.39611458 
C   -2.36131060   0.14408980  -0.00642660 
C   -2.85119225   1.57497633   0.13554261 
H   -3.87118001   1.60790553   0.51734749 
H   -2.82417857   2.10347214  -0.81734040 
H   -2.25160786   2.15032130   0.83244022 
C   -3.31356009  -0.63866392  -0.90072860 
H   -2.42587465  -0.29154842   0.98964085 
H   -4.30462876  -0.68560669  -0.45084093 
H   -3.43486705  -0.18580426  -1.88608726 
H   -2.97449080  -1.66372031  -1.04718991 
C   -0.64178317   0.27504292  -1.62023568 
C    0.63811998   0.21176373  -2.26065953 
H   -1.45416956   0.54738683  -2.29143882 
C    1.89889096   0.20051092  -1.74054373 
C    2.94377902   0.13364058  -2.67467795 
S    0.76311721   0.00082438  -3.96139374 
C    2.45457572  -0.06187231  -3.93515868 
H    2.28668421   0.96673903  -0.76228292 
H    4.00289246   0.11878613  -2.46255420 
H    3.03070897  -0.21726834  -4.83442146 
H   -0.92307370  -3.09486791   2.29586647 
H    1.05866126  -1.93629015   3.65843816 
H    3.08422292  -1.48916991   1.89893914 
O    1.52732187   1.54835241   0.92224325 
O   -0.13314368   0.97697241   2.12097879 
C    0.65729189   1.88291067   1.77382977 
C    0.64102508   3.27018612   2.29553157 
H    0.78637701   3.99685934   1.49771920 
H    1.45378370   3.42321675   3.00750730 
H   -0.29667153   3.46723823   2.80760474 
H    2.34629870  -2.52575763  -0.44695865 
H   -0.16736829  -3.40350182  -0.23248724 
*
