! EnGrad PBEh-3c
%output 
xyzfile=True 
end 
%scf 
maxiter 250 
end
%output
Print[P_Hirshfeld] = 1
end
% maxcore
4000
*xyz 1 1
Ir   0.44145769  -0.66763767   0.99822568 
C   -0.05000230  -2.63899271   1.84242710 
C    1.04147964  -2.08030460   2.58128707 
C    1.69464182  -2.35096065   0.39008419 
C    0.39482367  -2.84021217   0.49950938 
C    2.10472459  -1.87960048   1.70236522 
N   -0.93650736   0.03266453  -0.40914210 
C   -2.37980291   0.14306189   0.01133550 
C   -2.84442573   1.58212868   0.14488964 
H   -3.87221513   1.59485473   0.52269718 
H   -2.82927836   2.10629781  -0.80648653 
H   -2.24841593   2.13909304   0.85351953 
C   -3.31050651  -0.64278734  -0.91042558 
H   -2.42512276  -0.30796891   0.99111837 
H   -4.30397820  -0.68294985  -0.45195729 
H   -3.44190977  -0.17507481  -1.88587987 
H   -2.97922387  -1.66433095  -1.05916368 
C   -0.64637699   0.28653333  -1.63700177 
C    0.65687620   0.20029730  -2.24807342 
H   -1.46420792   0.54867455  -2.29248482 
C    1.96288316   0.31396602  -1.67325309 
C    2.93507998   0.09821996  -2.67364585 
S    0.74807258  -0.00519251  -3.98054628 
C    2.44870890  -0.05889790  -3.94088362 
H    2.23473737   0.88356704  -0.81559346 
H    3.99443084   0.12118137  -2.45449494 
H    3.02684742  -0.21217771  -4.83622903 
H   -0.93638716  -3.08978325   2.27354080 
H    1.03106575  -1.92319076   3.65365639 
H    3.07629082  -1.48166174   1.92895882 
O    1.53980552   1.52674849   0.89996492 
O   -0.15690927   0.96967477   2.13554330 
C    0.68481679   1.87588315   1.74311262 
C    0.63777557   3.27658932   2.29569094 
H    0.78670794   3.99922261   1.49043403 
H    1.46157670   3.42578328   2.99751080 
H   -0.29287749   3.47572785   2.80726666 
H    2.36487970  -2.50511686  -0.43767043 
H   -0.15046283  -3.39276036  -0.25001941 
*
