! EnGrad PBEh-3c
%output 
xyzfile=True 
end 
%scf 
maxiter 250 
end
%output
Print[P_Hirshfeld] = 1
end
% maxcore
4000
*xyz 1 1
Ir   0.44748205  -0.66103458   1.01822130 
C   -0.05498279  -2.63554198   1.82254724 
C    1.02632733  -2.08776190   2.58991596 
C    1.72739264  -2.36157230   0.41466324 
C    0.41249907  -2.85031375   0.49751986 
C    2.10381352  -1.87976555   1.71132512 
N   -0.94380273   0.03149934  -0.41437598 
C   -2.38050785   0.13859667   0.00777804 
C   -2.84626389   1.58039306   0.15987192 
H   -3.87030268   1.58314466   0.52813961 
H   -2.83324337   2.11116932  -0.79480341 
H   -2.24239369   2.12890013   0.87882054 
C   -3.31585056  -0.63933751  -0.91164904 
H   -2.42551192  -0.32818668   0.99770954 
H   -4.30158484  -0.68182904  -0.45613581 
H   -3.44850582  -0.16278943  -1.88591177 
H   -2.98238382  -1.66712119  -1.07354464 
C   -0.63370490   0.28877370  -1.63506548 
C    0.68503425   0.21301774  -2.22689397 
H   -1.47393468   0.55077141  -2.30063644 
C    1.94175186   0.35109937  -1.73718672 
C    2.94114745   0.08936745  -2.67157887 
S    0.74729239  -0.01207278  -3.96120412 
C    2.44022475  -0.06550680  -3.93396377 
H    2.20681200   0.84035246  -0.80198882 
H    3.99025725   0.12104913  -2.45093967 
H    3.02230135  -0.20783393  -4.83741305 
H   -0.94911107  -3.07694855   2.24330189 
H    0.99923054  -1.90768761   3.64901397 
H    3.07102886  -1.47195430   1.96657977 
O    1.53598434   1.49309534   0.88741840 
O   -0.14445501   0.99147658   2.13150556 
C    0.67925638   1.86467385   1.73922894 
C    0.64577995   3.26730520   2.27972210 
H    0.78583568   4.00102131   1.48398013 
H    1.46867148   3.42734970   2.98501381 
H   -0.29015931   3.48198347   2.80642355 
H    2.38641856  -2.47901428  -0.42988175 
H   -0.13026779  -3.37707706  -0.27485279 
*
