! EnGrad PBEh-3c
%output 
xyzfile=True 
end 
%scf 
maxiter 250 
end
%output
Print[P_Hirshfeld] = 1
end
% maxcore
4000
*xyz 1 1
Ir   0.45311797  -0.66530129   1.02242440 
C   -0.05843597  -2.63308402   1.81053415 
C    1.01390630  -2.08912802   2.59558474 
C    1.74822285  -2.36482622   0.42703879 
C    0.42488072  -2.85503895   0.49444153 
C    2.10526970  -1.87831493   1.72397534 
N   -0.94290851   0.03205527  -0.41347519 
C   -2.37833078   0.13316800   0.00655992 
C   -2.84503489   1.57659480   0.17014981 
H   -3.87065562   1.57543517   0.53394942 
H   -2.83509284   2.11428329  -0.78304824 
H   -2.23995864   2.12022061   0.89552415 
C   -3.31795900  -0.63765734  -0.91458986 
H   -2.42562675  -0.34063675   0.99706945 
H   -4.30269355  -0.68162294  -0.45823237 
H   -3.45305791  -0.15407741  -1.88510925 
H   -2.98558607  -1.66578608  -1.08404793 
C   -0.63553870   0.29159412  -1.63003233 
C    0.67747134   0.22553065  -2.23066506 
H   -1.47031562   0.54975249  -2.30298741 
C    1.93676882   0.36000900  -1.76775040 
C    2.94703272   0.09456671  -2.67402278 
S    0.74631054  -0.01791064  -3.94643137 
C    2.43871814  -0.07470713  -3.93724076 
H    2.19295545   0.81863731  -0.78581832 
H    3.99125546   0.11968409  -2.44850754 
H    3.01626358  -0.20553171  -4.83557953 
H   -0.96000291  -3.06726169   2.21976227 
H    0.97482630  -1.89723246   3.64735831 
H    3.06583513  -1.46566686   1.99475841 
O    1.52866415   1.46905531   0.88303945 
O   -0.14023842   1.00046651   2.13150816 
C    0.67934256   1.86366181   1.73558224 
C    0.65141172   3.26398155   2.26905782 
H    0.78538937   4.00116569   1.47873167 
H    1.47289565   3.42715837   2.97374833 
H   -0.28331903   3.48312660   2.80210801 
H    2.40298881  -2.45957287  -0.42182385 
H   -0.11232163  -3.36420184  -0.29240101 
*
