! EnGrad PBEh-3c
%output 
xyzfile=True 
end 
%scf 
maxiter 250 
end
%output
Print[P_Hirshfeld] = 1
end
% maxcore
4000
*xyz 1 1
Ir   0.46049809  -0.66432536   1.02838115 
C   -0.06219793  -2.63133880   1.79836088 
C    1.00194978  -2.09066826   2.59525987 
C    1.76522524  -2.37149118   0.43964806 
C    0.44624287  -2.85803129   0.48798572 
C    2.10559930  -1.87627979   1.74643951 
N   -0.94117817   0.03057827  -0.41051160 
C   -2.37906265   0.12713773   0.01039589 
C   -2.84150651   1.57288208   0.18171546 
H   -3.87149441   1.56564676   0.54161636 
H   -2.83706580   2.11747172  -0.76743571 
H   -2.23814858   2.10867169   0.91477750 
C   -3.31857977  -0.63702540  -0.92015689 
H   -2.42534643  -0.35484450   0.99378061 
H   -4.30458638  -0.68119463  -0.46006241 
H   -3.45867604  -0.14353655  -1.88405974 
H   -2.99004887  -1.66308025  -1.09681238 
C   -0.64085023   0.29731065  -1.62955616 
C    0.66558336   0.23658653  -2.23915601 
H   -1.46580820   0.54822841  -2.30403071 
C    1.94859412   0.38692676  -1.76079929 
C    2.94920498   0.09664896  -2.68426517 
S    0.74147601  -0.02600822  -3.94149044 
C    2.43646580  -0.08350193  -3.93864566 
H    2.17082265   0.78244366  -0.78636513 
H    3.99385847   0.11865202  -2.44428282 
H    3.00995271  -0.20382056  -4.83695209 
H   -0.97439319  -3.05628876   2.19147735 
H    0.94462751  -1.88445779   3.64756404 
H    3.05918712  -1.45811674   2.02881870 
O    1.52038658   1.44341491   0.87884471 
O   -0.14560357   1.00266191   2.13740655 
C    0.68982523   1.86125126   1.72192338 
C    0.65548006   3.26443667   2.25997860 
H    0.78537969   4.00153281   1.47095123 
H    1.47870421   3.42671159   2.95993226 
H   -0.27336344   3.48392049   2.79574644 
H    2.42412050  -2.43633106  -0.41152473 
H   -0.09013468  -3.34915351  -0.31316116 
*
