! EnGrad PBEh-3c
%output 
xyzfile=True 
end 
%scf 
maxiter 250 
end
%output
Print[P_Hirshfeld] = 1
end
% maxcore
4000
*xyz 1 1
Sc   0.81159388  -0.60372888  -2.06494868 
C    0.22359793  -0.44740234   0.20409602 
N   -0.46575422  -1.33982178   0.96154009 
C   -0.61467252  -0.86966708   2.21911701 
C   -0.01969712   0.31041803   2.29018638 
N    0.49440719   0.56687664   1.06420053 
C    1.28584752   1.77004421   0.71564720 
H    1.03772260   2.58020069   1.39803728 
H    1.08272716   2.10498363  -0.27116446 
H    2.33209565   1.54360321   0.84491121 
C   -0.96462286  -2.62443053   0.50410124 
H   -0.84200865  -2.75223028  -0.55258540 
H   -2.02930682  -2.70721631   0.72330442 
H   -0.44788628  -3.42508409   1.02759809 
H   -1.13373683  -1.43907466   2.98529105 
H    0.12406124   0.97113945   3.12810705 
C    0.11707346   1.52759197  -2.91314705 
H   -0.49959761   1.52428004  -3.86523861 
H    0.83554592   2.32757849  -3.08313238 
H   -0.60696804   1.90348555  -2.17807067 
H   -0.72022623  -0.92107366  -3.13472018 
*
