! EnGrad PBEh-3c
%output 
xyzfile=True 
end 
%scf 
maxiter 250 
end
%output
Print[P_Hirshfeld] = 1
end
% maxcore
4000
*xyz 1 1
Sc   0.74507027  -0.49560817  -2.17638426 
C    0.26584635  -0.48128926   0.21183530 
N   -0.45133863  -1.34600972   0.95107463 
C   -0.67477498  -0.86140114   2.21200544 
C   -0.05303193   0.35100582   2.27719459 
N    0.53447792   0.54572394   1.05168592 
C    1.32870609   1.73189285   0.70546849 
H    1.15832662   2.52824436   1.43007591 
H    1.06186663   2.11495049  -0.27654469 
H    2.37435783   1.47272796   0.77178018 
C   -0.95841778  -2.63250969   0.51923251 
H   -0.77003831  -2.79712149  -0.53995999 
H   -2.03344867  -2.69313015   0.66473551 
H   -0.49183171  -3.42524829   1.10097072 
H   -1.21515097  -1.38156588   2.94920234 
H    0.05200241   1.02411239   3.08226440 
C    0.08422376   1.50265421  -2.87465308 
H   -0.56054659   1.51880136  -3.80339775 
H    0.75428942   2.36479490  -3.03705911 
H   -0.64379564   1.83227691  -2.11695182 
H   -0.50666269  -0.87205283  -3.09733880 
*
