! EnGrad PBEh-3c
%output 
xyzfile=True 
end 
%scf 
maxiter 250 
end
%output
Print[P_Hirshfeld] = 1
end
% maxcore
4000
*xyz 1 1
Sc   1.69058828  -1.29189481  -1.48782311 
C    0.35302645  -0.59290994   0.20898051 
N   -0.47610630  -1.36812110   0.92664603 
C   -0.79062384  -0.76734202   2.10957549 
C   -0.13604140   0.41350437   2.13150177 
N    0.56826543   0.49838735   0.96832033 
C    1.42729771   1.61337184   0.63517684 
H    1.55209286   2.34321698   1.43182146 
H    0.99198125   2.15394074  -0.20070779 
H    2.42903084   1.28840110   0.36518077 
C   -0.98719322  -2.67517797   0.55556860 
H   -0.58957589  -2.97041989  -0.41149661 
H   -2.07280046  -2.63951234   0.49045916 
H   -0.69296737  -3.41915928   1.29194573 
H   -1.44046795  -1.21385248   2.84268488 
H   -0.14070817   1.16705300   2.89981638 
C   -0.26073124   1.68538491  -2.86524271 
H   -0.95206853   1.70313944  -3.72418994 
H    0.22259474   2.66445668  -2.93365632 
H   -0.86739359   1.66819526  -1.95761001 
H    0.17182445  -0.26064996  -3.27695738 
*
