! EnGrad PBEh-3c
%output 
xyzfile=True 
end 
%scf 
maxiter 250 
end
%output
Print[P_Hirshfeld] = 1
end
% maxcore
4000
*xyz 1 1
Sc   1.66320929  -1.26675759  -1.51085630 
C    0.40505566  -0.61756100   0.19438297 
N   -0.48322095  -1.36308235   0.92810784 
C   -0.80041831  -0.76373933   2.11897620 
C   -0.15128132   0.41082669   2.15141962 
N    0.56136628   0.50353792   0.99217491 
C    1.42976305   1.63395645   0.59104155 
H    1.54337344   2.31637120   1.45097324 
H    0.99478000   2.15943513  -0.20732890 
H    2.42983661   1.27147805   0.35200168 
C   -0.99023410  -2.67149292   0.55384362 
H   -0.58994544  -2.97279665  -0.41113376 
H   -2.07268015  -2.64192627   0.48466057 
H   -0.69726532  -3.41774310   1.29890720 
H   -1.44411837  -1.21137360   2.84028649 
H   -0.13715796   1.17583382   2.89074585 
C   -0.38072080   1.63408944  -2.92413149 
H   -0.94166197   1.66996680  -3.69766553 
H    0.29697997   2.61202931  -2.93009967 
H   -0.84663690   1.62277271  -1.95621041 
H    0.21185104  -0.08225173  -3.21161073 
*
