! EnGrad PBEh-3c
%output 
xyzfile=True 
end 
%scf 
maxiter 250 
end
%output
Print[P_Hirshfeld] = 1
end
% maxcore
4000
*xyz 1 1
Sc   1.56817196  -1.17139968  -1.61408320 
C    0.41569755  -0.60687648   0.25132933 
N   -0.46877847  -1.36067147   0.92672982 
C   -0.79957664  -0.76833296   2.11480141 
C   -0.13836403   0.41319358   2.15273930 
N    0.58108494   0.50132224   0.98840640 
C    1.42277531   1.62372438   0.61490392 
H    1.50100383   2.30750263   1.45541318 
H    0.99902897   2.16710903  -0.24759336 
H    2.42942548   1.27165555   0.37266145 
C   -0.98151523  -2.66648658   0.55171267 
H   -0.59922051  -2.95717103  -0.42199207 
H   -2.06972925  -2.64543571   0.48940002 
H   -0.68399901  -3.41318631   1.28601929 
H   -1.45209312  -1.22424173   2.84798263 
H   -0.12416587   1.18315891   2.91212307 
C   -0.29732139   1.56972568  -2.90832427 
H   -0.98648193   1.62560911  -3.78906748 
H    0.38146183   2.44116697  -2.93140119 
H   -0.85507090   1.58666857  -1.94951937 
H    0.16036293   0.12699249  -3.10452304 
*
