! EnGrad PBEh-3c
%output 
xyzfile=True 
end 
%scf 
maxiter 250 
end
%output
Print[P_Hirshfeld] = 1
end
% maxcore
4000
*xyz 1 1
Sc   1.45300909  -1.05545302  -1.72756236 
C    0.41156546  -0.60033280   0.25108451 
N   -0.45686517  -1.36019653   0.94136050 
C   -0.79282082  -0.76559191   2.12715017 
C   -0.12779603   0.41630414   2.16737028 
N    0.58870552   0.50057847   1.00608744 
C    1.41391601   1.62642538   0.62345818 
H    1.45598981   2.32683311   1.45247665 
H    1.01645476   2.14735125  -0.25597044 
H    2.42844912   1.28861366   0.41687340 
C   -0.97482784  -2.66159183   0.54665685 
H   -0.60939367  -2.93581393  -0.43899908 
H   -2.06069242  -2.64637133   0.50206052 
H   -0.66023552  -3.41244209   1.26532233 
H   -1.44582956  -1.23384693   2.84867908 
H   -0.10948421   1.17012317   2.93256971 
C   -0.26307311   1.48400666  -2.89470701 
H   -0.94414978   1.59783306  -3.80670706 
H    0.45625911   2.34311741  -2.93562936 
H   -0.85619650   1.59714109  -1.98349758 
H    0.08057265   0.17897864  -3.03912700 
*
