! EnGrad PBEh-3c
%output 
xyzfile=True 
end 
%scf 
maxiter 250 
end
%output
Print[P_Hirshfeld] = 1
end
% maxcore
4000
*xyz 1 1
Sc   1.26927442  -0.83704040  -1.90466319 
C    0.39682938  -0.58827329   0.23340116 
N   -0.44272501  -1.36073924   0.95185807 
C   -0.78616266  -0.77490514   2.14244619 
C   -0.11621377   0.41831439   2.18586776 
N    0.59300600   0.49457021   1.01789594 
C    1.40847728   1.62495034   0.63635498 
H    1.40582038   2.35361438   1.44601304 
H    1.03130955   2.11628879  -0.25859509 
H    2.43223271   1.30810738   0.46714537 
C   -0.96272220  -2.65041870   0.54356801 
H   -0.61842874  -2.90622348  -0.45536436 
H   -2.05162249  -2.64265373   0.51773893 
H   -0.63076541  -3.41735911   1.24032868 
H   -1.43659362  -1.23672643   2.84965532 
H   -0.09221136   1.16097994   2.95625976 
C   -0.24833914   1.40703235  -2.88748267 
H   -0.85411951   1.53963099  -3.77574196 
H    0.53433860   2.17486723  -2.93104283 
H   -0.86886691   1.60558442  -2.01734097 
H    0.04356478   0.21903687  -2.96008612 
*
