! EnGrad PBEh-3c
%output 
xyzfile=True 
end 
%scf 
maxiter 250 
end
%output
Print[P_Hirshfeld] = 1
end
% maxcore
4000
*xyz 1 1
Sc   1.24996191  -0.78407475  -1.92116288 
C    0.39010743  -0.58620358   0.22411127 
N   -0.44571478  -1.36172863   0.94888576 
C   -0.77760955  -0.77054106   2.13748179 
C   -0.11974701   0.40851399   2.18183271 
N    0.58900400   0.49489096   1.01570596 
C    1.41001225   1.62095347   0.63577488 
H    1.41080644   2.35285454   1.44463206 
H    1.02712956   2.11233970  -0.25352447 
H    2.43595820   1.30619988   0.46204464 
C   -0.96278320  -2.65087842   0.54447451 
H   -0.61493398  -2.90474609  -0.45157324 
H   -2.05108033  -2.63871397   0.51759291 
H   -0.63199236  -3.42031325   1.24058865 
H   -1.44052608  -1.23366174   2.85266914 
H   -0.09325218   1.16644896   2.95333066 
C   -0.25198230   1.39898526  -2.86955037 
H   -0.84127430   1.52301660  -3.75446084 
H    0.53198544   2.14976370  -2.92403842 
H   -0.87271882   1.60088180  -2.01702216 
H    0.06564103   0.22545301  -2.97001808 
*
