! EnGrad PBEh-3c
%output 
xyzfile=True 
end 
%scf 
maxiter 250 
end
%output
Print[P_Hirshfeld] = 1
end
% maxcore
4000
*xyz -1 1
Pd  -2.09065976  -1.61040280   0.68017132 
Cl  -3.34138358  -3.33317642  -0.30763443 
Cl  -0.45679434  -4.89118193   1.21254518 
Cl  -4.11974634  -0.61253846   1.16227941 
N   -0.98319701  -0.00279796   1.41066719 
C   -1.31837274   0.55299254   2.55819787 
C   -0.81011258   1.78594512   2.97955821 
C    0.09139757   2.42621459   2.16629426 
C   -0.08272332   0.58501144   0.59103743 
C    0.47267660   1.82929915   0.95538308 
H    0.50742996   3.38048618   2.46643692 
H   -2.00365443  -0.00230608   3.18634285 
H   -1.12263280   2.20643989   3.92416324 
C    0.32670312  -0.10157998  -0.60020715 
C    1.40614718   2.44899466   0.06551439 
C    1.75507807   1.84429759  -1.09231196 
C    1.24414411   0.55510593  -1.45051581 
H    1.82331307   3.41417708   0.32790704 
H    2.45773795   2.33785909  -1.75772319 
C   -0.14834882  -1.39178070  -0.92309129 
C    1.66651007  -0.07789911  -2.62808949 
C    0.25864200  -1.95432772  -2.11842264 
C    1.20418943  -1.33188076  -2.93733461 
H    2.36691218   0.41590522  -3.29796341 
H    1.54895332  -1.80934104  -3.84969341 
H   -0.50937253  -3.76554938  -0.26157826 
H   -0.14284055  -2.89796615  -2.46193692 
*
