! EnGrad PBEh-3c
%output 
xyzfile=True 
end 
%scf 
maxiter 250 
end
%output
Print[P_Hirshfeld] = 1
end
% maxcore
4000
*xyz -1 1
Pd  -2.05335678  -1.61265394   0.58988782 
Cl  -3.32379623  -3.31268951  -0.29330336 
Cl  -0.47161019  -4.78336917   1.10077155 
Cl  -4.11334447  -0.58081778   1.16015372 
N   -1.00385679  -0.02985008   1.40758187 
C   -1.31366637   0.55115535   2.56841096 
C   -0.80249091   1.76902469   2.97561838 
C    0.08391797   2.41443476   2.16619102 
C   -0.08084621   0.57497053   0.61067031 
C    0.47964430   1.83782074   0.94835425 
H    0.50845410   3.37727953   2.46088970 
H   -2.00536338  -0.00386741   3.18001136 
H   -1.12029847   2.19792308   3.92736982 
C    0.33681719  -0.11135038  -0.60928537 
C    1.40021832   2.44495739   0.06255982 
C    1.75120531   1.84852529  -1.09166993 
C    1.25078693   0.56810703  -1.45725391 
H    1.81658820   3.41348702   0.32818838 
H    2.44885583   2.33567920  -1.76063291 
C   -0.21079379  -1.42310811  -0.86882431 
C    1.67751732  -0.07495981  -2.63217449 
C    0.26779506  -1.96168149  -2.11409291 
C    1.20256495  -1.32123471  -2.95241118 
H    2.36225802   0.42030716  -3.29179181 
H    1.54905148  -1.80981645  -3.84980959 
H   -0.50235244  -3.81668415  -0.10999627 
H   -0.13511631  -2.90963747  -2.45666343 
*
