! EnGrad PBEh-3c
%output 
xyzfile=True 
end 
%scf 
maxiter 250 
end
%output
Print[P_Hirshfeld] = 1
end
% maxcore
4000
*xyz -1 1
Pd  -2.02779102  -1.58813088   0.52315085 
Cl  -3.31644355  -3.30365573  -0.28927314 
Cl  -0.48655620  -4.68473092   1.01533932 
Cl  -4.09234447  -0.55004342   1.14683432 
N   -0.99488220  -0.02829065   1.40555237 
C   -1.31641488   0.52346178   2.55779678 
C   -0.79750854   1.75906310   2.98559728 
C    0.09047311   2.41605820   2.16182933 
C   -0.07482778   0.56113421   0.60391654 
C    0.46729890   1.81943231   0.95530697 
H    0.50441711   3.36808195   2.45586444 
H   -2.01130107  -0.00999421   3.18073555 
H   -1.11413498   2.18298552   3.92518027 
C    0.32237947  -0.12720972  -0.59096183 
C    1.39748420   2.45196986   0.06180583 
C    1.74692472   1.84900660  -1.09622868 
C    1.24338588   0.55146498  -1.45655846 
H    1.80789304   3.41291750   0.32744675 
H    2.44131586   2.33829253  -1.76643723 
C   -0.21518989  -1.42724894  -0.87873158 
C    1.67463359  -0.07249409  -2.63102975 
C    0.25497198  -1.96394643  -2.08048809 
C    1.18958582  -1.32093217  -2.93734719 
H    2.36713291   0.43228636  -3.29695247 
H    1.54935735  -1.81048131  -3.85362091 
H   -0.49304556  -3.85675293   0.02095784 
H   -0.11970229  -2.91877585  -2.45097021 
*
