! EnGrad PBEh-3c
%output 
xyzfile=True 
end 
%scf 
maxiter 250 
end
%output
Print[P_Hirshfeld] = 1
end
% maxcore
4000
*xyz -1 1
Pd  -1.99676934  -1.53541778   0.43375016 
Cl  -3.30382402  -3.29584146  -0.29740705 
Cl  -0.49426957  -4.64301426   1.00803940 
Cl  -4.05328954  -0.51393504   1.13390676 
N   -0.98655144  -0.03811490   1.39437619 
C   -1.31291324   0.51130927   2.55475739 
C   -0.79005731   1.73280911   2.98269631 
C    0.08526365   2.39682322   2.16313557 
C   -0.06816682   0.55506384   0.60467238 
C    0.47184913   1.81094912   0.95107726 
H    0.50163141   3.36237798   2.44908000 
H   -2.02340105  -0.02278466   3.17736407 
H   -1.10706613   2.16198323   3.92687447 
C    0.32378859  -0.13575899  -0.59178202 
C    1.38367867   2.44381936   0.06041771 
C    1.73365426   1.83981919  -1.09601020 
C    1.23435246   0.54038138  -1.44104655 
H    1.79627890   3.41619564   0.32807383 
H    2.42955218   2.33935077  -1.77465894 
C   -0.23523033  -1.41975190  -0.86971266 
C    1.66473201  -0.07536907  -2.63064981 
C    0.24937877  -1.97540195  -2.06906299 
C    1.17836044  -1.32933632  -2.92237194 
H    2.36565263   0.44199795  -3.29649286 
H    1.53623683  -1.80660365  -3.83768044 
H   -0.48624835  -3.82665555   0.09160579 
H   -0.10254615  -2.92967870  -2.43370890 
*
