! EnGrad PBEh-3c
%output 
xyzfile=True 
end 
%scf 
maxiter 250 
end
%output
Print[P_Hirshfeld] = 1
end
% maxcore
4000
*xyz -1 1
Pd  -1.97466129  -1.45081771   0.30617283 
Cl  -3.28644418  -3.27770869  -0.32703874 
Cl  -0.50224354  -4.61605364   1.07776167 
Cl  -3.96951931  -0.43953599   1.09246345 
N   -0.97356974  -0.05141638   1.38200917 
C   -1.31097106   0.47388571   2.54709319 
C   -0.78019808   1.68719075   2.98612468 
C    0.08808122   2.36696298   2.16394475 
C   -0.05244018   0.54815359   0.60505495 
C    0.47823775   1.79817026   0.95397593 
H    0.48831251   3.33786509   2.43707403 
H   -2.03633353  -0.05089105   3.15851184 
H   -1.09112087   2.11259702   3.92972329 
C    0.32982189  -0.13867698  -0.58989870 
C    1.36883078   2.44040209   0.05309168 
C    1.71553573   1.83166553  -1.09819130 
C    1.23649085   0.53071020  -1.43937476 
H    1.76469162   3.41164854   0.32360267 
H    2.39043186   2.33097236  -1.78271430 
C   -0.25505316  -1.41301294  -0.87177033 
C    1.64601483  -0.07917579  -2.62670808 
C    0.24663640  -1.98825509  -2.05141608 
C    1.17089825  -1.33628100  -2.89725154 
H    2.33911494   0.44454244  -3.28251220 
H    1.50930551  -1.80817433  -3.80848547 
H   -0.47655312  -3.69591510   0.15719653 
H   -0.07524200  -2.96470380  -2.39729542 
*
