! EnGrad PBEh-3c
%output 
xyzfile=True 
end 
%scf 
maxiter 250 
end
%output
Print[P_Hirshfeld] = 1
end
% maxcore
4000
*xyz -1 1
Pd  -1.99520712  -1.42826866   0.25171141 
Cl  -3.26804943  -3.25150906  -0.37519159 
Cl  -0.49328464  -4.56947855   1.11588064 
Cl  -3.91753341  -0.37829412   1.06037896 
N   -0.96605487  -0.05832716   1.37129365 
C   -1.30559702   0.44721283   2.53796617 
C   -0.77196437   1.65791448   2.99024566 
C    0.09219888   2.34630832   2.17210476 
C   -0.03938141   0.54217421   0.60536958 
C    0.48362101   1.78910124   0.95922224 
H    0.47490071   3.31728012   2.43683829 
H   -2.04264066  -0.07985371   3.13081231 
H   -1.07971414   2.06841424   3.93700536 
C    0.33622700  -0.13515624  -0.58978007 
C    1.36274091   2.44057733   0.05226624 
C    1.70822083   1.83386372  -1.09959876 
C    1.23610542   0.53370608  -1.43800442 
H    1.74078262   3.41373255   0.31477144 
H    2.36359209   2.32783911  -1.79651861 
C   -0.24921397  -1.40372111  -0.88660512 
C    1.63613404  -0.08668158  -2.61851853 
C    0.24681591  -2.00092512  -2.03953547 
C    1.16541594  -1.34493663  -2.88470632 
H    2.31256590   0.43790190  -3.27850043 
H    1.49354465  -1.82714498  -3.79956468 
H   -0.47584112  -3.60380444   0.23753853 
H   -0.06338462  -2.99030053  -2.36174907 
*
