! EnGrad PBEh-3c
%output 
xyzfile=True 
end 
%scf 
maxiter 250 
end
%output
Print[P_Hirshfeld] = 1
end
% maxcore
4000
*xyz 1 1
Sc   0.93871347  -0.64406362  -1.95224223 
C    0.23774904  -0.44702859   0.20479286 
N   -0.46009375  -1.33135640   0.93630777 
C   -0.62074968  -0.88319112   2.21515913 
C    0.01165361   0.30764643   2.29077743 
N    0.49621344   0.57452364   1.04410102 
C    1.28217748   1.75625572   0.75038723 
H    1.02217837   2.60405469   1.37799071 
H    1.09446006   2.08174540  -0.27082387 
H    2.34379120   1.54887677   0.86218886 
C   -0.97202241  -2.61849372   0.50021562 
H   -0.84634127  -2.72431541  -0.57385369 
H   -2.03262760  -2.68936802   0.73041803 
H   -0.43838320  -3.42751802   0.99367636 
H   -1.14974401  -1.43211152   2.97558515 
H    0.13275912   0.95497617   3.14227795 
C    0.07336556   1.58672037  -2.92928630 
H   -0.46059479   1.51901317  -3.88595012 
H    0.82823891   2.36486217  -3.09253855 
H   -0.63728620   1.96952317  -2.18992646 
H   -0.84343016  -1.07074568  -3.12925973 
*
