! EnGrad PBEh-3c
%output 
xyzfile=True 
end 
%scf 
maxiter 250 
end
%output
Print[P_Hirshfeld] = 1
end
% maxcore
4000
*xyz 1 1
Sc   0.82309427  -0.55408287  -2.07103462 
C    0.26521903  -0.46302335   0.19819354 
N   -0.46252624  -1.33704020   0.94668422 
C   -0.63874903  -0.87284276   2.21362967 
C   -0.02387857   0.31958464   2.28405115 
N    0.51431616   0.56622441   1.06407119 
C    1.31606691   1.74532152   0.70258356 
H    1.07767756   2.56771601   1.40221437 
H    1.08344907   2.08328030  -0.26983676 
H    2.36536994   1.51467500   0.82088422 
C   -0.96458791  -2.62330223   0.49814114 
H   -0.81546632  -2.75205991  -0.56263248 
H   -2.03566532  -2.68399828   0.69869214 
H   -0.46376514  -3.42886651   1.03615393 
H   -1.19042207  -1.40742419   2.95883603 
H    0.09821072   0.98671615   3.11480496 
C    0.09834389   1.55432987  -2.88647895 
H   -0.49038351   1.50523649  -3.85119705 
H    0.78026715   2.39124143  -3.05816461 
H   -0.66175587   1.92974286  -2.16002655 
H   -0.67487975  -1.04020994  -3.07802108 
*
