! EnGrad PBEh-3c
%output 
xyzfile=True 
end 
%scf 
maxiter 250 
end
%output
Print[P_Hirshfeld] = 1
end
% maxcore
4000
*xyz 1 1
Sc   0.76587183  -0.50263550  -2.12606038 
C    0.27555400  -0.47025362   0.20702184 
N   -0.45722783  -1.33555383   0.94146081 
C   -0.65095556  -0.87070109   2.21110913 
C   -0.03608975   0.33108018   2.28202082 
N    0.52546208   0.55864065   1.05374100 
C    1.32672444   1.73673516   0.70780480 
H    1.10796100   2.54503699   1.40804699 
H    1.07519364   2.08763746  -0.28286818 
H    2.37908606   1.49738723   0.79682235 
C   -0.96456846  -2.62627891   0.50427923 
H   -0.79846647  -2.76593886  -0.55961261 
H   -2.03596219  -2.68144767   0.68184621 
H   -0.47686063  -3.42893428   1.05602661 
H   -1.21227251  -1.39629590   2.95260031 
H    0.07979634   1.00352875   3.10272537 
C    0.09536414   1.53932030  -2.87029414 
H   -0.49859484   1.49663882  -3.82452061 
H    0.75880591   2.40402249  -3.03958609 
H   -0.66895625   1.90631303  -2.14744884 
H   -0.59012264  -1.02639843  -3.05300095 
*
