! EnGrad PBEh-3c
%output 
xyzfile=True 
end 
%scf 
maxiter 250 
end
%output
Print[P_Hirshfeld] = 1
end
% maxcore
4000
*xyz 1 1
Sc   0.73748981  -0.45848374  -2.15071297 
C    0.28264724  -0.47498979   0.21091664 
N   -0.45308434  -1.33573794   0.93700330 
C   -0.65723401  -0.86275793   2.20602598 
C   -0.04118008   0.33454281   2.27345463 
N    0.53130190   0.55331933   1.04442450 
C    1.32956860   1.72743060   0.71466760 
H    1.12918757   2.52905884   1.41131621 
H    1.07054170   2.09053625  -0.29072817 
H    2.39018099   1.48542944   0.77726155 
C   -0.96454980  -2.62753305   0.50844800 
H   -0.78560023  -2.77569875  -0.55630581 
H   -2.03693407  -2.67931884   0.67000090 
H   -0.48602780  -3.42859873   1.06909621 
H   -1.22957793  -1.39062791   2.95038958 
H    0.06633674   1.01825307   3.09750853 
C    0.08340014   1.53531364  -2.86399597 
H   -0.49998388   1.48842561  -3.80057532 
H    0.74406842   2.40872185  -3.02444946 
H   -0.67119049   1.88725525  -2.13886473 
H   -0.54005877  -1.02211574  -3.04254390 
*
