! EnGrad PBEh-3c
%output 
xyzfile=True 
end 
%scf 
maxiter 250 
end
%output
Print[P_Hirshfeld] = 1
end
% maxcore
4000
*xyz 1 1
Sc   0.70182119  -0.39018741  -2.18359659 
C    0.29584951  -0.48415551   0.20696779 
N   -0.45017267  -1.33805318   0.93601623 
C   -0.67035307  -0.85503572   2.20071343 
C   -0.04942900   0.34472228   2.26437979 
N    0.53885860   0.54701286   1.04113318 
C    1.34039586   1.71336437   0.70450855 
H    1.16136987   2.50711201   1.42153455 
H    1.06541327   2.09249211  -0.29269024 
H    2.40398915   1.46657446   0.74675511 
C   -0.96237048  -2.62956257   0.51025265 
H   -0.76539815  -2.79144538  -0.54863541 
H   -2.03941915  -2.67548141   0.65149041 
H   -0.50068215  -3.42820271   1.09076555 
H   -1.25436955  -1.37831958   2.94272501 
H    0.04456230   1.03852314   3.08424579 
C    0.07518941   1.53103450  -2.84910974 
H   -0.50886046   1.47592192  -3.77171381 
H    0.71856404   2.41566495  -3.00051863 
H   -0.67992022   1.85933181  -2.12140649 
H   -0.46645124  -1.01798104  -3.03109180 
*
