! EnGrad PBEh-3c
%output 
xyzfile=True 
end 
%scf 
maxiter 250 
end
%output
Print[P_Hirshfeld] = 1
end
% maxcore
4000
*xyz 1 1
Sc   0.79425464  -0.19552927  -2.10007685 
C    0.32212006  -0.51321619   0.19544902 
N   -0.44343296  -1.34508715   0.92813134 
C   -0.70649876  -0.81621796   2.17039700 
C   -0.06654295   0.36287934   2.23014585 
N    0.55426514   0.52846619   1.01793037 
C    1.37555524   1.67234429   0.67903628 
H    1.26392519   2.43418364   1.44113538 
H    1.05762431   2.09759931  -0.27622180 
H    2.43144874   1.40641425   0.63114351 
C   -0.96144352  -2.63915525   0.51647806 
H   -0.69316664  -2.84108787  -0.51703640 
H   -2.04653713  -2.65807959   0.59293847 
H   -0.54953425  -3.42179225   1.15155901 
H   -1.32446953  -1.33026687   2.90586410 
H   -0.02590935   1.09886419   3.03072103 
C    0.01656530   1.57938896  -2.80656448 
H   -0.55885669   1.43344949  -3.72255000 
H    0.64760087   2.44877321  -2.92378578 
H   -0.73142559   1.78163939  -2.03629665 
H   -0.36056597  -1.07656081  -3.10645353 
*
