! EnGrad PBEh-3c
%output 
xyzfile=True 
end 
%scf 
maxiter 250 
end
%output
Print[P_Hirshfeld] = 1
end
% maxcore
4000
*xyz 1 1
Sc   0.83531775  -0.20399656  -2.06617205 
C    0.32574373  -0.51872053   0.19886248 
N   -0.44668075  -1.34514718   0.92603023 
C   -0.72260099  -0.82559809   2.16229926 
C   -0.06690989   0.38375347   2.22538649 
N    0.55740491   0.52600083   1.01847729 
C    1.38436341   1.66258989   0.66962220 
H    1.29004448   2.41887770   1.44290081 
H    1.05543933   2.10398388  -0.26773217 
H    2.43465461   1.38905154   0.60008461 
C   -0.96158789  -2.64231208   0.51595927 
H   -0.67427927  -2.85266890  -0.50719611 
H   -2.04795013  -2.65209161   0.57843327 
H   -0.56301902  -3.41937910   1.16517153 
H   -1.33380411  -1.30988416   2.88713597 
H   -0.04124807   1.10541474   3.00660277 
C   -0.00953143   1.58965935  -2.79479714 
H   -0.57661877   1.42714256  -3.71940339 
H    0.63179397   2.47517751  -2.90828998 
H   -0.75686181   1.77383345  -2.00676416 
H   -0.31892229  -1.07797047  -3.12535518 
*
