! EnGrad PBEh-3c
%output 
xyzfile=True 
end 
%scf 
maxiter 250 
end
%output
Print[P_Hirshfeld] = 1
end
% maxcore
4000
*xyz 1 1
Sc   0.86597764  -0.22620752  -2.04711957 
C    0.33072649  -0.52371128   0.20353710 
N   -0.45246914  -1.34724708   0.92723008 
C   -0.72060250  -0.81010279   2.15004763 
C   -0.07990590   0.37588229   2.21197366 
N    0.56082415   0.52543577   1.02193829 
C    1.39177712   1.65562484   0.66167779 
H    1.31420236   2.40606781   1.44321506 
H    1.05155388   2.11171898  -0.26176593 
H    2.43728157   1.37264489   0.57322215 
C   -0.96203624  -2.64461030   0.51587984 
H   -0.65827937  -2.86307592  -0.49929193 
H   -2.04885928  -2.64706779   0.56536299 
H   -0.57554294  -3.41747998   1.17733122 
H   -1.34787445  -1.29674564   2.87661752 
H   -0.05265033   1.11767749   2.99164814 
C   -0.02824087   1.59413180  -2.78042434 
H   -0.59357250   1.42546292  -3.71487098 
H    0.60952781   2.49275973  -2.89534629 
H   -0.77971509   1.76925654  -1.98463382 
H   -0.26692305  -1.06231232  -3.13529400 
*
