27
Coordinates from ORCA-job reaction-2-ieip_optts_Compound_1 E -2061.468228498863
  Pd     -2.080380     -1.575790      0.467860
  Cl     -3.368550     -3.159560     -0.541320
  Cl     -0.413020     -4.054400      0.998020
  Cl     -3.953930     -0.403380      1.101390
  N      -0.963000     -0.138350      1.419890
  C      -1.301610      0.402040      2.574230
  C      -0.767650      1.613680      3.015930
  C       0.091800      2.295530      2.192300
  C      -0.035190      0.453570      0.641880
  C       0.477210      1.725680      0.974590
  H       0.477100      3.270650      2.469330
  H      -2.045720     -0.121900      3.153850
  H      -1.073280      2.017860      3.970320
  C       0.368370     -0.238440     -0.547060
  C       1.339830      2.391060      0.054410
  C       1.668820      1.792610     -1.109800
  C       1.209010      0.475640     -1.436340
  H       1.707330      3.381240      0.299640
  H       2.307550      2.306140     -1.820160
  C      -0.086690     -1.567520     -0.817780
  C       1.597610     -0.129430     -2.637200
  C       0.303070     -2.082700     -2.046370
  C       1.140290     -1.389330     -2.934850
  H       2.256820      0.406360     -3.312320
  H       1.453980     -1.859650     -3.859260
  H      -0.285580     -2.735760      0.050110
  H      -0.024860     -3.076800     -2.321540
27
Coordinates from ORCA-job reaction-2-ieip_optts_Compound_1 E -2061.477077226827
  Pd     -2.067998     -1.557615      0.423040
  Cl     -3.245624     -3.135784     -0.715199
  Cl     -0.254461     -3.967955      1.015589
  Cl     -3.992892     -0.509461      1.121262
  N      -0.984018     -0.121970      1.411600
  C      -1.327197      0.414764      2.565188
  C      -0.777139      1.616298      3.016762
  C       0.101564      2.290982      2.206104
  C      -0.041290      0.465407      0.647249
  C       0.488738      1.725020      0.986269
  H       0.498704      3.257192      2.496003
  H      -2.085847     -0.102572      3.132396
  H      -1.084626      2.018636      3.971360
  C       0.361318     -0.226286     -0.539080
  C       1.366631      2.373400      0.066074
  C       1.687158      1.774379     -1.102112
  C       1.207288      0.466356     -1.434255
  H       1.751369      3.356271      0.312518
  H       2.333063      2.281181     -1.810374
  C      -0.108806     -1.544273     -0.800148
  C       1.568451     -0.154760     -2.636908
  C       0.251874     -2.085191     -2.024096
  C       1.084544     -1.408801     -2.926346
  H       2.227549      0.363042     -3.325150
  H       1.373869     -1.887677     -3.853983
  H      -0.233389     -2.623464      0.069304
  H      -0.099503     -3.078072     -2.273317
27
Coordinates from ORCA-job reaction-2-ieip_optts_Compound_1 E -2061.483001873842
  Pd     -2.063790     -1.549355      0.391482
  Cl     -3.148536     -3.126755     -0.836644
  Cl     -0.113625     -3.880387      1.062611
  Cl     -4.022332     -0.626209      1.169494
  N      -1.006837     -0.107645      1.399097
  C      -1.356052      0.429088      2.550239
  C      -0.791450      1.620839      3.010986
  C       0.109332      2.284682      2.215026
  C      -0.047229      0.471835      0.648654
  C       0.500803      1.719293      0.995662
  H       0.518678      3.241894      2.516670
  H      -2.131091     -0.078904      3.104103
  H      -1.103943      2.023774      3.963713
  C       0.355772     -0.218154     -0.536441
  C       1.397012      2.351663      0.080276
  C       1.710919      1.754553     -1.091881
  C       1.208694      0.457740     -1.433851
  H       1.800022      3.325505      0.332156
  H       2.367667      2.254680     -1.794583
  C      -0.126534     -1.526668     -0.794717
  C       1.546217     -0.172079     -2.639896
  C       0.208847     -2.084089     -2.017235
  C       1.037571     -1.418247     -2.928414
  H       2.207683      0.332088     -3.335463
  H       1.306552     -1.899473     -3.860751
  H      -0.204891     -2.505566      0.076295
  H      -0.160130     -3.075053     -2.246839
27
Coordinates from ORCA-job reaction-2-ieip_optts_Compound_1 E -2061.486715643085
  Pd     -2.062351     -1.547061      0.363654
  Cl     -3.091718     -3.106764     -0.934148
  Cl     -0.006733     -3.795522      1.144986
  Cl     -4.048389     -0.750829      1.207788
  N      -1.024809     -0.096931      1.386676
  C      -1.379874      0.441674      2.534626
  C      -0.801027      1.623245      3.004792
  C       0.120193      2.275888      2.222680
  C      -0.049068      0.473584      0.649080
  C       0.514481      1.710733      1.003733
  H       0.541196      3.224577      2.534535
  H      -2.170895     -0.056150      3.075645
  H      -1.117682      2.027231      3.955719
  C       0.353543     -0.212593     -0.536842
  C       1.423859      2.332135      0.092550
  C       1.729841      1.739914     -1.084900
  C       1.209394      0.452952     -1.436092
  H       1.841810      3.297899      0.350428
  H       2.393902      2.236193     -1.783227
  C      -0.134607     -1.515683     -0.793615
  C       1.527125     -0.180742     -2.646062
  C       0.181360     -2.083657     -2.015552
  C       1.002037     -1.421444     -2.934302
  H       2.188077      0.315127     -3.347741
  H       1.254624     -1.901703     -3.871542
  H      -0.199190     -2.408419      0.086782
  H      -0.195768     -3.074601     -2.229904
27
Coordinates from ORCA-job reaction-2-ieip_optts_Compound_1 E -2061.488402159115
  Pd     -2.068043     -1.552421      0.352749
  Cl     -3.082273     -3.079999     -0.994719
  Cl      0.037981     -3.704661      1.271171
  Cl     -4.066395     -0.857098      1.234324
  N      -1.036176     -0.093516      1.377205
  C      -1.396790      0.449219      2.521240
  C      -0.805708      1.621580      2.999573
  C       0.132680      2.262776      2.228553
  C      -0.047124      0.467441      0.648589
  C       0.527718      1.697157      1.009816
  H       0.564427      3.204168      2.547579
  H      -2.201893     -0.038406      3.051439
  H      -1.125541      2.027736      3.948562
  C       0.355900     -0.212829     -0.541264
  C       1.443857      2.314799      0.102091
  C       1.740360      1.731927     -1.082595
  C       1.208347      0.452412     -1.442444
  H       1.872370      3.273819      0.367271
  H       2.406612      2.228651     -1.778329
  C      -0.123213     -1.516237     -0.800113
  C       1.512244     -0.177774     -2.658228
  C       0.181230     -2.087593     -2.021845
  C       0.985127     -1.417754     -2.948330
  H       2.166350      0.319747     -3.364857
  H       1.225007     -1.891880     -3.891837
  H      -0.214858     -2.341026      0.091941
  H      -0.192865     -3.081187     -2.227790
27
Coordinates from ORCA-job reaction-2-ieip_optts_Compound_1 E -2061.489185519217
  Pd     -2.074343     -1.565826      0.353558
  Cl     -3.095537     -3.071247     -1.013014
  Cl      0.069625     -3.576864      1.422361
  Cl     -4.066198     -0.894114      1.255045
  N      -1.044464     -0.099438      1.367602
  C      -1.409945      0.445041      2.509002
  C      -0.812147      1.610970      2.994053
  C       0.138570      2.244302      2.232126
  C      -0.046499      0.455014      0.645189
  C       0.535558      1.679056      1.013669
  H       0.577245      3.180434      2.556864
  H      -2.224072     -0.036727      3.031202
  H      -1.136130      2.018141      3.941181
  C       0.356946     -0.217141     -0.550549
  C       1.457016      2.296701      0.111026
  C       1.747465      1.724535     -1.080271
  C       1.206997      0.451782     -1.450424
  H       1.893458      3.249498      0.385250
  H       2.416455      2.223089     -1.771926
  C      -0.111309     -1.521211     -0.815571
  C       1.503992     -0.171646     -2.671875
  C       0.185964     -2.090523     -2.038247
  C       0.977844     -1.410712     -2.967717
  H       2.153582      0.330381     -3.379340
  H       1.209861     -1.876801     -3.917104
  H      -0.226218     -2.292478      0.082868
  H      -0.184386     -3.085165     -2.245210
27
Coordinates from ORCA-job reaction-2-ieip_optts_Compound_1 E -2061.489702240271
  Pd     -2.088166     -1.576260      0.361354
  Cl     -3.128365     -3.080923     -0.990494
  Cl      0.055519     -3.446532      1.567893
  Cl     -4.075493     -0.909032      1.271238
  N      -1.050103     -0.106382      1.356688
  C      -1.415013      0.435589      2.499164
  C      -0.811868      1.595751      2.990724
  C       0.144160      2.226196      2.233850
  C      -0.046690      0.443889      0.638195
  C       0.540014      1.663656      1.013647
  H       0.587814      3.158365      2.563005
  H      -2.233243     -0.043364      3.017428
  H      -1.136428      2.000559      3.938619
  C       0.358340     -0.220579     -0.563027
  C       1.463564      2.284888      0.115733
  C       1.750384      1.723150     -1.081124
  C       1.206554      0.454532     -1.459835
  H       1.904350      3.233137      0.398553
  H       2.420687      2.224890     -1.769130
  C      -0.095882     -1.527576     -0.834869
  C       1.504530     -0.161569     -2.685268
  C       0.199942     -2.091356     -2.058950
  C       0.984207     -1.400999     -2.987909
  H       2.152043      0.346620     -3.390204
  H       1.215428     -1.859916     -3.940982
  H      -0.243319     -2.280301      0.066567
  H      -0.163635     -3.087383     -2.271118
27
Coordinates from ORCA-job reaction-2-ieip_optts_Compound_1 E -2061.490406154340
  Pd     -2.090238     -1.589316      0.350983
  Cl     -3.104711     -3.111203     -1.001307
  Cl      0.092461     -3.264294      1.713257
  Cl     -4.075450     -0.894953      1.254502
  N      -1.061950     -0.111728      1.342451
  C      -1.426848      0.426306      2.486324
  C      -0.815091      1.577593      2.988321
  C       0.149740      2.204713      2.240457
  C      -0.048056      0.432609      0.634538
  C       0.546016      1.645848      1.018653
  H       0.599491      3.131196      2.577240
  H      -2.252100     -0.048000      2.997527
  H      -1.140724      1.978755      3.937391
  C       0.358098     -0.225728     -0.568957
  C       1.474086      2.267193      0.125349
  C       1.755966      1.714574     -1.077007
  C       1.205117      0.451533     -1.464071
  H       1.921272      3.210190      0.415633
  H       2.427781      2.218383     -1.761974
  C      -0.094936     -1.532054     -0.844096
  C       1.495248     -0.158594     -2.694862
  C       0.187955     -2.088835     -2.073925
  C       0.968394     -1.393566     -3.003353
  H       2.141190      0.351387     -3.399920
  H       1.190411     -1.845679     -3.961818
  H      -0.222980     -2.265531      0.060084
  H      -0.180813     -3.081751     -2.291669
27
Coordinates from ORCA-job reaction-2-ieip_optts_Compound_1 E -2061.490729215853
  Pd     -2.098064     -1.590647      0.337550
  Cl     -3.095333     -3.139201     -0.999002
  Cl      0.102636     -3.102129      1.841771
  Cl     -4.091402     -0.909547      1.230786
  N      -1.074284     -0.109569      1.325811
  C      -1.436414      0.421611      2.473037
  C      -0.811381      1.560126      2.988170
  C       0.161488      2.184113      2.248629
  C      -0.048680      0.426256      0.629421
  C       0.554247      1.631639      1.022562
  H       0.620014      3.102802      2.594726
  H      -2.269134     -0.046668      2.977280
  H      -1.134224      1.955063      3.940816
  C       0.359304     -0.228315     -0.575443
  C       1.484565      2.254078      0.132285
  C       1.758278      1.711500     -1.076627
  C       1.202037      0.452850     -1.470462
  H       1.938643      3.191581      0.429532
  H       2.429337      2.218127     -1.760178
  C      -0.084593     -1.537869     -0.850947
  C       1.485115     -0.151436     -2.706311
  C       0.190656     -2.089625     -2.084113
  C       0.959144     -1.385735     -3.017523
  H       2.125656      0.362770     -3.413181
  H       1.173317     -1.831851     -3.980529
  H      -0.226790     -2.267238      0.064122
  H      -0.174808     -3.083637     -2.302430
27
Coordinates from ORCA-job reaction-2-ieip_optts_Compound_1 E -2061.490838339667
  Pd     -2.091357     -1.586061      0.310980
  Cl     -3.037443     -3.151356     -1.045177
  Cl      0.191038     -2.989105      1.902533
  Cl     -4.100878     -0.980839      1.222477
  N      -1.094648     -0.093638      1.309708
  C      -1.456644      0.434233      2.457940
  C      -0.817838      1.559981      2.984804
  C       0.168645      2.175840      2.256555
  C      -0.053450      0.429506      0.628798
  C       0.562135      1.625064      1.029813
  H       0.637328      3.085645      2.612344
  H      -2.299701     -0.025477      2.952900
  H      -1.140415      1.952181      3.938717
  C       0.356732     -0.228907     -0.570984
  C       1.502628      2.238696      0.143789
  C       1.770782      1.698338     -1.067726
  C       1.202094      0.446463     -1.466249
  H       1.967848      3.169353      0.445253
  H       2.446826      2.200973     -1.749213
  C      -0.096504     -1.536267     -0.843815
  C       1.471766     -0.157187     -2.705660
  C       0.161440     -2.085028     -2.082526
  C       0.929197     -1.383930     -3.018599
  H       2.112555      0.352633     -3.415412
  H       1.128776     -1.826954     -3.986011
  H      -0.204111     -2.251294      0.055684
  H      -0.217471     -3.073814     -2.301175
27
Coordinates from ORCA-job reaction-2-ieip_optts_Compound_1 E -2061.490742613334
  Pd     -2.100838     -1.586104      0.309210
  Cl     -3.041354     -3.173659     -1.025441
  Cl      0.211358     -2.832522      1.989458
  Cl     -4.110221     -0.993084      1.220166
  N      -1.104132     -0.092920      1.301272
  C      -1.465398      0.430531      2.450973
  C      -0.816243      1.546519      2.986110
  C       0.176321      2.157888      2.262482
  C      -0.056390      0.422622      0.624785
  C       0.565879      1.611993      1.031791
  H       0.653206      3.060891      2.624571
  H      -2.312277     -0.026239      2.942166
  H      -1.135161      1.935142      3.942705
  C       0.353988     -0.233607     -0.578322
  C       1.508897      2.226579      0.149055
  C       1.771881      1.693442     -1.066676
  C       1.198777      0.445442     -1.471105
  H       1.979690      3.152470      0.456302
  H       2.449252      2.196862     -1.746204
  C      -0.090771     -1.541525     -0.859694
  C       1.469445     -0.152200     -2.713901
  C       0.169124     -2.087043     -2.098593
  C       0.931624     -1.378995     -3.033549
  H       2.109331      0.362735     -3.420758
  H       1.132258     -1.817223     -4.002901
  H      -0.242894     -2.252276      0.045552
  H      -0.206019     -3.076667     -2.319704
27
Coordinates from ORCA-job reaction-2-ieip_optts_Compound_1 E -2061.490952386732
  Pd     -2.099004     -1.586263      0.317983
  Cl     -3.060879     -3.152906     -1.024999
  Cl      0.188101     -2.971352      1.912545
  Cl     -4.101606     -0.962749      1.227415
  N      -1.093242     -0.097637      1.312285
  C      -1.454532      0.429192      2.460947
  C      -0.815364      1.555021      2.987094
  C       0.168969      2.171688      2.256645
  C      -0.055614      0.427365      0.626875
  C       0.559415      1.623012      1.027706
  H       0.638678      3.080995      2.612308
  H      -2.294580     -0.033141      2.958577
  H      -1.135409      1.946266      3.942234
  C       0.353103     -0.228823     -0.576318
  C       1.498306      2.239161      0.141720
  C       1.766493      1.700469     -1.070348
  C       1.199264      0.448331     -1.469833
  H       1.963025      3.169673      0.444273
  H       2.442688      2.203718     -1.751219
  C      -0.094017     -1.536025     -0.854400
  C       1.475888     -0.154875     -2.708247
  C       0.174425     -2.088133     -2.088738
  C       0.942115     -1.384955     -3.022906
  H       2.117720      0.357479     -3.415230
  H       1.149755     -1.828866     -3.988243
  H      -0.236749     -2.247728      0.047426
  H      -0.197617     -3.079868     -2.305801
27
Coordinates from ORCA-job reaction-2-ieip_optts_Compound_1 E -2061.490894434180
  Pd     -2.099400     -1.587069      0.321277
  Cl     -3.053802     -3.156175     -1.024370
  Cl      0.213943     -2.944994      1.917129
  Cl     -4.104904     -0.991116      1.242104
  N      -1.098836     -0.093700      1.310549
  C      -1.458966      0.433695      2.459240
  C      -0.817820      1.558126      2.985770
  C       0.168850      2.172074      2.256453
  C      -0.059310      0.428580      0.625834
  C       0.558948      1.622097      1.027976
  H       0.641134      3.079839      2.612620
  H      -2.299697     -0.027162      2.956970
  H      -1.137750      1.949931      3.940714
  C       0.349850     -0.228069     -0.576991
  C       1.501796      2.235510      0.144341
  C       1.771355      1.696356     -1.067135
  C       1.200684      0.446336     -1.468190
  H       1.968916      3.164284      0.448559
  H       2.450960      2.197330     -1.746266
  C      -0.101472     -1.532765     -0.859474
  C       1.479138     -0.157049     -2.706193
  C       0.166756     -2.084904     -2.093465
  C       0.941437     -1.384529     -3.024061
  H       2.125257      0.353580     -3.410499
  H       1.150449     -1.828431     -3.989075
  H      -0.247505     -2.248634      0.028723
  H      -0.210680     -3.074092     -2.312791
27
Coordinates from ORCA-job reaction-2-ieip_optts_Compound_1 E -2061.490953800094
  Pd     -2.100133     -1.590278      0.321651
  Cl     -3.056372     -3.162716     -1.018517
  Cl      0.195146     -2.942139      1.922823
  Cl     -4.102083     -0.959093      1.227725
  N      -1.095233     -0.099035      1.311309
  C      -1.455154      0.427357      2.460619
  C      -0.815557      1.552768      2.987052
  C       0.168759      2.169352      2.256716
  C      -0.057777      0.426180      0.625596
  C       0.558383      1.620971      1.027461
  H       0.639318      3.078105      2.612672
  H      -2.294599     -0.035080      2.959025
  H      -1.135164      1.943502      3.942539
  C       0.351111     -0.228763     -0.578063
  C       1.498661      2.236801      0.142747
  C       1.767897      1.698705     -1.069284
  C       1.199647      0.447536     -1.470046
  H       1.963990      3.166609      0.446565
  H       2.445513      2.201553     -1.749043
  C      -0.097571     -1.534536     -0.858715
  C       1.478015     -0.155415     -2.708177
  C       0.171124     -2.086355     -2.092833
  C       0.942921     -1.384379     -3.024678
  H       2.122074      0.356423     -3.413496
  H       1.151993     -1.828154     -3.989770
  H      -0.241851     -2.244218      0.039567
  H      -0.203729     -3.076650     -2.311695
27
Coordinates from ORCA-job reaction-2-ieip_optts_Compound_1 E -2061.490971399786
  Pd     -2.100798     -1.590353      0.325547
  Cl     -3.061547     -3.163879     -1.009743
  Cl      0.183391     -2.961526      1.918435
  Cl     -4.103805     -0.952925      1.223117
  N      -1.093934     -0.098870      1.312243
  C      -1.453748      0.427797      2.461496
  C      -0.814660      1.553737      2.987288
  C       0.168976      2.170503      2.256235
  C      -0.057031      0.426354      0.625790
  C       0.558411      1.621765      1.027097
  H       0.639120      3.079754      2.611462
  H      -2.292852     -0.034566      2.960434
  H      -1.134224      1.944732      3.942683
  C       0.352392     -0.228946     -0.577751
  C       1.497783      2.238285      0.141971
  C       1.766690      1.700365     -1.070164
  C       1.199411      0.448603     -1.470391
  H       1.962489      3.168484      0.445543
  H       2.443366      2.203749     -1.750457
  C      -0.093338     -1.536066     -0.857852
  C       1.477825     -0.153562     -2.708819
  C       0.175773     -2.087141     -2.092110
  C       0.944813     -1.383407     -3.024917
  H       2.120427      0.359558     -3.414528
  H       1.153764     -1.826754     -3.990229
  H      -0.243159     -2.247928      0.037598
  H      -0.196205     -3.078712     -2.310229
27
Coordinates from ORCA-job reaction-2-ieip_optts_Compound_1 E -2061.491006459910
  Pd     -2.096423     -1.593571      0.328372
  Cl     -3.048608     -3.174068     -1.004538
  Cl      0.157223     -2.965533      1.932769
  Cl     -4.103908     -0.928304      1.197402
  N      -1.091577     -0.100999      1.313060
  C      -1.451979      0.425852      2.462173
  C      -0.812786      1.551435      2.988516
  C       0.170843      2.168539      2.257581
  C      -0.054449      0.424377      0.627064
  C       0.560093      1.620388      1.028186
  H       0.640778      3.077838      2.612991
  H      -2.291472     -0.036229      2.960697
  H      -1.132283      1.942129      3.944056
  C       0.355533     -0.230405     -0.576525
  C       1.497275      2.238516      0.141749
  C       1.763924      1.702264     -1.071676
  C       1.198086      0.449694     -1.471496
  H       1.961263      3.169178      0.445013
  H       2.437693      2.207644     -1.753376
  C      -0.086294     -1.538651     -0.855350
  C       1.472878     -0.150631     -2.711608
  C       0.178909     -2.088505     -2.090853
  C       0.941587     -1.381620     -3.026572
  H       2.110752      0.364952     -3.419788
  H       1.146699     -1.823078     -3.993577
  H      -0.232956     -2.251264      0.043450
  H      -0.191472     -3.080895     -2.307971
27
Coordinates from ORCA-job reaction-2-ieip_optts_Compound_1 E -2061.490991307599
  Pd     -2.096580     -1.593412      0.325621
  Cl     -3.048195     -3.174826     -1.007384
  Cl      0.174225     -2.952136      1.934720
  Cl     -4.103912     -0.942123      1.204438
  N      -1.093745     -0.099321      1.311459
  C      -1.454779      0.427770      2.460157
  C      -0.814545      1.552414      2.987379
  C       0.170861      2.168227      2.257823
  C      -0.055046      0.424693      0.626874
  C       0.560727      1.619742      1.028726
  H       0.641745      3.076713      2.614044
  H      -2.295471     -0.033341      2.957587
  H      -1.134536      1.943352      3.942659
  C       0.354803     -0.230334     -0.576534
  C       1.499635      2.236628      0.143273
  C       1.766514      1.700231     -1.070038
  C       1.198920      0.448723     -1.470674
  H       1.964806      3.166503      0.447120
  H       2.441705      2.204679     -1.751011
  C      -0.089713     -1.537811     -0.856219
  C       1.473360     -0.151601     -2.710907
  C       0.175075     -2.087150     -2.092150
  C       0.939728     -1.381250     -3.026930
  H       2.112800      0.362999     -3.418390
  H       1.144582     -1.822661     -3.994000
  H      -0.236274     -2.249108      0.042319
  H      -0.197362     -3.078552     -2.310212
27
Coordinates from ORCA-job reaction-2-ieip_optts_Compound_1 E -2061.490978684364
  Pd     -2.096511     -1.593101      0.324588
  Cl     -3.045448     -3.174410     -1.010512
  Cl      0.182340     -2.939066      1.938683
  Cl     -4.104394     -0.949890      1.207201
  N      -1.094977     -0.098674      1.311179
  C      -1.455606      0.428135      2.460046
  C      -0.814664      1.552259      2.987551
  C       0.171019      2.167742      2.258146
  C      -0.055986      0.424926      0.626649
  C       0.560499      1.619430      1.028795
  H       0.642605      3.075710      2.614752
  H      -2.296222     -0.033000      2.957613
  H      -1.134193      1.942946      3.943089
  C       0.353546     -0.230066     -0.576948
  C       1.500070      2.235783      0.143685
  C       1.767275      1.699175     -1.069449
  C       1.199020      0.448065     -1.470405
  H       1.965771      3.165310      0.447776
  H       2.443294      2.203071     -1.750000
  C      -0.092738     -1.536594     -0.857833
  C       1.474201     -0.152780     -2.710301
  C       0.172523     -2.086565     -2.093295
  C       0.939604     -1.381822     -3.026966
  H       2.115088      0.361019     -3.417053
  H       1.145303     -1.823650     -3.993659
  H      -0.240239     -2.247798      0.038347
  H      -0.201850     -3.077104     -2.311929
27
Coordinates from ORCA-job reaction-2-ieip_optts_Compound_1 E -2061.490990761751
  Pd     -2.095525     -1.593883      0.325446
  Cl     -3.043939     -3.177677     -1.007262
  Cl      0.175980     -2.944049      1.941348
  Cl     -4.104718     -0.944644      1.200574
  N      -1.094405     -0.098800      1.311122
  C      -1.455572      0.428337      2.459712
  C      -0.814536      1.552286      2.987467
  C       0.171591      2.167502      2.258407
  C      -0.054942      0.424421      0.627095
  C       0.561357      1.619066      1.029225
  H       0.643135      3.075475      2.615063
  H      -2.296721     -0.032314      2.956797
  H      -1.134379      1.943146      3.942832
  C       0.354885     -0.230620     -0.576370
  C       1.500506      2.235743      0.143879
  C       1.766944      1.699658     -1.069660
  C       1.198884      0.448444     -1.470563
  H       1.966098      3.165340      0.447925
  H       2.442137      2.204094     -1.750630
  C      -0.090106     -1.537770     -0.856708
  C       1.472626     -0.151506     -2.711174
  C       0.173899     -2.086832     -2.092874
  C       0.938447     -1.380786     -3.027609
  H       2.111887      0.363209     -3.418724
  H       1.142618     -1.821808     -3.994992
  H      -0.237341     -2.249167      0.040637
  H      -0.199481     -3.077813     -2.311215
27
Coordinates from ORCA-job reaction-2-ieip_optts_Compound_1 E -2061.490989861009
  Pd     -2.093917     -1.594049      0.324427
  Cl     -3.039707     -3.178666     -1.009193
  Cl      0.172718     -2.946970      1.943568
  Cl     -4.104733     -0.941832      1.193573
  N      -1.093956     -0.098752      1.311180
  C      -1.455388      0.428398      2.459683
  C      -0.814183      1.552137      2.987721
  C       0.172138      2.167403      2.258910
  C      -0.054289      0.424528      0.627538
  C       0.561931      1.619189      1.029635
  H       0.643753      3.075223      2.615870
  H      -2.296765     -0.032110      2.956522
  H      -1.133994      1.942837      3.943166
  C       0.355552     -0.230559     -0.575797
  C       1.500683      2.235955      0.143882
  C       1.766493      1.700084     -1.069930
  C       1.198524      0.448748     -1.470660
  H       1.966356      3.165568      0.447755
  H       2.441136      2.204810     -1.751228
  C      -0.089200     -1.537977     -0.855165
  C       1.470920     -0.151221     -2.711563
  C       0.173701     -2.087186     -2.091506
  C       0.936694     -1.380725     -3.027217
  H       2.109010      0.363649     -3.420052
  H       1.139539     -1.821585     -3.994950
  H      -0.234032     -2.249566      0.042964
  H      -0.199655     -3.078281     -2.309383
