! EnGrad PBEh-3c
%output 
xyzfile=True 
end 
%scf 
maxiter 250 
end
%output
Print[P_Hirshfeld] = 1
end
% maxcore
4000
*xyz 1 1
Sc   1.43574406  -1.00773080  -1.70940295 
C    0.31893003  -0.54008800   0.21044189 
N   -0.46237623  -1.35734291   0.93507173 
C   -0.74965859  -0.79820606   2.14548654 
C   -0.09362681   0.38116421   2.19431967 
N    0.55700821   0.52149544   1.00585378 
C    1.39803516   1.65513830   0.68473376 
H    1.39882647   2.44793025   1.42882012 
H    1.03315344   2.11541833  -0.22966852 
H    2.43500023   1.35569551   0.55132772 
C   -0.96754129  -2.66022268   0.54089265 
H   -0.63849811  -2.89626330  -0.46744525 
H   -2.05527001  -2.65244990   0.56203418 
H   -0.60060226  -3.43072290   1.21496592 
H   -1.37553453  -1.27174221   2.88266254 
H   -0.07052928   1.10117469   2.99383719 
C   -0.13650888   1.67218544  -2.87812557 
H   -0.75188320   1.67543346  -3.78786804 
H    0.43633602   2.60447165  -2.97018711 
H   -0.81494198   1.80058227  -2.03040071 
H   -0.29603760  -0.71591048  -3.27735469 
*
