! EnGrad PBEh-3c
%output 
xyzfile=True 
end 
%scf 
maxiter 250 
end
%output
Print[P_Hirshfeld] = 1
end
% maxcore
4000
*xyz 1 1
Sc   1.24186480  -0.51711331  -1.90389595 
C    0.39816366  -0.61187315   0.24562879 
N   -0.45492558  -1.36836449   0.95271988 
C   -0.79060647  -0.76194528   2.13025150 
C   -0.13529819   0.41497114   2.16482681 
N    0.58877354   0.48445673   1.01011120 
C    1.41649482   1.60498618   0.61873467 
H    1.46260791   2.32036498   1.44206813 
H    1.00530520   2.12128661  -0.24518126 
H    2.43807351   1.28369431   0.40857951 
C   -0.96907073  -2.65866191   0.55089766 
H   -0.59351337  -2.92645838  -0.43137011 
H   -2.05517801  -2.62887005   0.49911293 
H   -0.66351397  -3.42580330   1.26110657 
H   -1.46142753  -1.20876243   2.83936737 
H   -0.11591468   1.18607684   2.91501191 
C   -0.18767649   1.43469484  -2.78406955 
H   -0.81721852   1.48150403  -3.68001280 
H    0.45224876   2.30240913  -2.87355263 
H   -0.88437969   1.62236776  -1.96392733 
H    0.13226360  -0.13907298  -3.15900619 
*
