! EnGrad PBEh-3c
%output 
xyzfile=True 
end 
%scf 
maxiter 250 
end
%output
Print[P_Hirshfeld] = 1
end
% maxcore
4000
*xyz 1 1
Sc   1.32837621  -0.94492364  -1.80827748 
C    0.37317197  -0.56935515   0.21418635 
N   -0.47330458  -1.35002966   0.93815525 
C   -0.76082008  -0.79344864   2.15651649 
C   -0.11867759   0.38303729   2.20061882 
N    0.55271534   0.52252297   1.02683692 
C    1.40987148   1.66485049   0.62925836 
H    1.41073359   2.40777804   1.44853404 
H    1.03043903   2.11728486  -0.23843358 
H    2.43959553   1.33719387   0.51732360 
C   -0.96772237  -2.65417841   0.54028828 
H   -0.63488389  -2.90946496  -0.46245080 
H   -2.05651852  -2.65313874   0.54193475 
H   -0.61686747  -3.42781202   1.23159224 
H   -1.39203360  -1.25979492   2.87228329 
H   -0.08016742   1.12133044   2.97089474 
C   -0.18247287   1.71088851  -2.85954473 
H   -0.76747756   1.62973995  -3.76165217 
H    0.43141353   2.58690317  -2.94428814 
H   -0.81857423   1.75244343  -2.01555634 
H   -0.10659279  -0.67027791  -3.19852802 
*
