! EnGrad PBEh-3c
%output 
xyzfile=True 
end 
%scf 
maxiter 250 
end
%output
Print[P_Hirshfeld] = 1
end
% maxcore
4000
*xyz 1 1
Sc   1.28042608  -0.91410023  -1.85449425 
C    0.38933190  -0.57804170   0.23356673 
N   -0.47057059  -1.34757057   0.93497795 
C   -0.76744116  -0.79254917   2.15152220 
C   -0.12580042   0.39076773   2.19970683 
N    0.56164481   0.51847745   1.01593691 
C    1.41394507   1.65858251   0.63527740 
H    1.42043777   2.38428579   1.44983490 
H    1.02255820   2.12568550  -0.25654536 
H    2.44220062   1.32665099   0.49531069 
C   -0.96952061  -2.65441866   0.54365618 
H   -0.63098784  -2.91629900  -0.45897951 
H   -2.05713860  -2.65297126   0.53075071 
H   -0.62704189  -3.42422365   1.23904973 
H   -1.40601749  -1.25548059   2.87072015 
H   -0.08733138   1.13457204   2.96174687 
C   -0.20421851   1.71437376  -2.85665666 
H   -0.78036087   1.60798402  -3.75156188 
H    0.43122081   2.58565981  -2.93063732 
H   -0.82981325   1.72849920  -1.99601044 
H   -0.00498808  -0.63768449  -3.15766906 
*
