! EnGrad PBEh-3c
%output 
xyzfile=True 
end 
%scf 
maxiter 250 
end
%output
Print[P_Hirshfeld] = 1
end
% maxcore
4000
*xyz 1 1
Sc   1.22087969  -0.77543820  -1.90719442 
C    0.41208733  -0.60405471   0.24911330 
N   -0.44864058  -1.36417490   0.94635598 
C   -0.79427155  -0.76485341   2.13051666 
C   -0.12889786   0.41694107   2.17036013 
N    0.59494842   0.49379139   1.00653482 
C    1.41381084   1.62578103   0.62295927 
H    1.45284839   2.32853440   1.45119516 
H    1.01589481   2.13439203  -0.26547836 
H    2.43407798   1.29706450   0.42678021 
C   -0.97280960  -2.65779299   0.54640052 
H   -0.61137253  -2.93312287  -0.44038443 
H   -2.05986056  -2.64597652   0.50016424 
H   -0.65695408  -3.41319087   1.25962060 
H   -1.44863569  -1.23579208   2.85504031 
H   -0.11346258   1.17458921   2.93549682 
C   -0.23482358   1.64602851  -2.82377998 
H   -0.83962812   1.54650264  -3.74924511 
H    0.42830468   2.52919350  -2.88985788 
H   -0.87887596   1.66145688  -1.92966929 
H    0.21819913  -0.45537090  -3.09438619 
*
