! EnGrad PBEh-3c
%output 
xyzfile=True 
end 
%scf 
maxiter 250 
end
%output
Print[P_Hirshfeld] = 1
end
% maxcore
4000
*xyz 1 1
Sc   1.24290429  -0.61868061  -1.88769678 
C    0.40588779  -0.61515277   0.24711558 
N   -0.44575645  -1.37115346   0.95673358 
C   -0.80336127  -0.76051418   2.12764290 
C   -0.13171078   0.42756005   2.16370616 
N    0.60092118   0.48089378   1.00721699 
C    1.41558652   1.60881155   0.61630163 
H    1.46403903   2.31289359   1.44538270 
H    1.01210349   2.12770206  -0.25219388 
H    2.43083891   1.28526021   0.40258800 
C   -0.97040855  -2.65679767   0.54972344 
H   -0.59748784  -2.93427389  -0.43268931 
H   -2.05846964  -2.63516420   0.49324607 
H   -0.66633990  -3.41742957   1.26480768 
H   -1.45878588  -1.21394814   2.83672277 
H   -0.12049661   1.18496520   2.91589200 
C   -0.21838475   1.52987267  -2.79611908 
H   -0.84015301   1.50668819  -3.71171004 
H    0.43074879   2.39648696  -2.87245294 
H   -0.89066331   1.63187556  -1.93776980 
H    0.20438827  -0.26220834  -3.13672479 
*
