! EnGrad PBEh-3c
%output 
xyzfile=True 
end 
%scf 
maxiter 250 
end
%output
Print[P_Hirshfeld] = 1
end
% maxcore
4000
*xyz 1 1
Sc   1.24528882  -0.56730459  -1.89363416 
C    0.40143743  -0.61336762   0.24641933 
N   -0.45181999  -1.36964066   0.95530540 
C   -0.79366070  -0.75895645   2.12782977 
C   -0.13473022   0.41728656   2.16300439 
N    0.59358075   0.48365967   1.01006648 
C    1.41596833   1.60655020   0.61732702 
H    1.46280025   2.31786463   1.44381540 
H    1.00867548   2.12413820  -0.24808348 
H    2.43492400   1.28488483   0.40649586 
C   -0.96935555  -2.65758888   0.55010822 
H   -0.59566080  -2.92993220  -0.43208753 
H   -2.05658702  -2.63169668   0.49678803 
H   -0.66443864  -3.42217650   1.26264617 
H   -1.46020092  -1.21172449   2.83860698 
H   -0.11752407   1.18584708   2.91628532 
C   -0.20176147   1.48036440  -2.79082793 
H   -0.82745379   1.49494600  -3.69435092 
H    0.44112555   2.34534295  -2.87364599 
H   -0.88699389   1.62810803  -1.95323285 
H    0.16263683  -0.19777022  -3.15036824 
*
