21
Generated by autodE on: 2023-07-07. E = -42.020939 Ha
C    -1.14093  -0.35626  -1.57992
C    -2.12739  -1.32288  -1.70942
C    -2.29625  -2.27922  -0.72208
C    -1.47692  -2.27576   0.39396
C    -0.32162  -0.34254  -0.45716
C    -0.49045  -1.30930   0.52763
H    -1.00821   0.39573  -2.35577
H    -2.76464  -1.33089  -2.58223
H    -3.06479  -3.03163  -0.82479
H     0.15780  -1.31142   1.40399
H    -1.60515  -3.02751   1.16012
Pd    1.10788   1.01122  -0.25967
O     3.14665   1.95957  -0.28549
O     2.66680  -0.07908  -0.95017
O    -0.17505   2.37828   0.47373
C     0.01493   2.52330   1.65857
O     0.84050   1.69215   2.30452
H     0.96332   1.87947   3.24636
C     3.48086   0.85056  -0.73323
H     4.55028   0.65729  -0.95583
H    -0.45755   3.31890   2.24690
