! EnGrad PBEh-3c
%output 
xyzfile=True 
end 
%scf 
maxiter 250 
end
%output
Print[P_Hirshfeld] = 1
end
% maxcore
4000
*xyz -1 1
Pt  -1.01082899  -0.88654805   0.54341561 
Cl  -0.26825544  -0.60098522   2.74825688 
Cl  -2.72043398  -2.31240685   1.17075938 
Cl  -1.65178650  -1.07569549  -1.70185811 
C    1.04927621   1.03238872  -0.60517839 
H    1.45465544   1.89963212  -0.08366866 
H    1.33029486  -0.07265012   0.37782152 
H    1.72305820   0.71483122  -1.39730283 
H    0.09402021   1.30142778  -1.05223718 
*
