! EnGrad PBEh-3c
%output 
xyzfile=True 
end 
%scf 
maxiter 250 
end
%output
Print[P_Hirshfeld] = 1
end
% maxcore
4000
*xyz -1 1
Pt  -1.01232849  -0.90814388   0.54446736 
Cl  -0.26116280  -0.56932508   2.71662638 
Cl  -2.66804102  -2.24496745   1.15553576 
Cl  -1.60420798  -1.08093794  -1.69198779 
C    1.13112115   0.88048960  -0.45753596 
H    1.45178931   1.85773405  -0.05256822 
H    1.21406388   0.05817825   0.18476991 
H    1.68834868   0.72559592  -1.40334126 
H    0.05740318   1.28100468  -0.99578512 
*
