! EnGrad PBEh-3c
%output 
xyzfile=True 
end 
%scf 
maxiter 250 
end
%output
Print[P_Hirshfeld] = 1
end
% maxcore
4000
*xyz -1 1
Pt  -1.01143165  -0.89522767   0.54383832 
Cl  -0.26540483  -0.58826064   2.73554421 
Cl  -2.69937664  -2.28530217   1.16464083 
Cl  -1.63266414  -1.07780249  -1.69789111 
C    1.08217064   0.97133869  -0.54583918 
H    1.45350351   1.88279280  -0.07116903 
H    1.28358027  -0.02006867   0.30023183 
H    1.70910804   0.71915767  -1.39972974 
H    0.07930340   1.29321950  -1.02954844 
*
