! EnGrad PBEh-3c
%output 
xyzfile=True 
end 
%scf 
maxiter 250 
end
%output
Print[P_Hirshfeld] = 1
end
% maxcore
4000
*xyz -1 1
Pt  -1.00426409  -0.90768864   0.53770570 
Cl  -0.25402431  -0.54597837   2.69994352 
Cl  -2.64769590  -2.21285927   1.15081186 
Cl  -1.57372729  -1.08769933  -1.69117466 
C    1.09183463   0.83165294  -0.42811068 
H    1.45612873   1.82128070  -0.02405314 
H    1.15645463   0.12996542   0.07877646 
H    1.66987400   0.72671956  -1.40107394 
H    0.10003739   1.24406104  -0.92262258 
*
