! EnGrad PBEh-3c
%output 
xyzfile=True 
end 
%scf 
maxiter 250 
end
%output
Print[P_Hirshfeld] = 1
end
% maxcore
4000
*xyz -1 1
Pt  -1.00814453  -0.90094240   0.54102584 
Cl  -0.26018560  -0.56886955   2.71921737 
Cl  -2.67567531  -2.25207910   1.15829872 
Cl  -1.60563509  -1.08234128  -1.69481088 
C    1.08660265   0.90727735  -0.49184766 
H    1.45470746   1.85458271  -0.04956119 
H    1.22527913   0.04873852   0.19867009 
H    1.69111490   0.72262563  -1.40034620 
H    0.08881222   1.27067492  -0.98051112 
*
