! EnGrad PBEh-3c
%output 
xyzfile=True 
end 
%scf 
maxiter 250 
end
%output
Print[P_Hirshfeld] = 1
end
% maxcore
4000
*xyz -1 1
Pt  -1.00945921  -0.90626502   0.53850010 
Cl  -0.25646435  -0.55445827   2.70189570 
Cl  -2.65797959  -2.22714068   1.15524063 
Cl  -1.58374788  -1.08426775  -1.68987349 
C    1.09676984   0.90794374  -0.49231950 
H    1.45525227   1.81379420  -0.03053604 
H    1.16536527   0.10558609   0.12032263 
H    1.67377585   0.72199549  -1.38576130 
H    0.11037891   1.22240404  -0.91716336 
*
