! EnGrad PBEh-3c
%output 
xyzfile=True 
end 
%scf 
maxiter 250 
end
%output
Print[P_Hirshfeld] = 1
end
% maxcore
4000
*xyz -1 1
Pt  -1.00449126  -0.90134975   0.53509556 
Cl  -0.25430097  -0.54838148   2.69503939 
Cl  -2.66123796  -2.22588564   1.15865281 
Cl  -1.57568527  -1.08525724  -1.69031628 
C    1.08021810   0.97534027  -0.55143436 
H    1.46261567   1.80137307  -0.01458659 
H    1.14696762   0.07229942   0.13697772 
H    1.67490222   0.71777788  -1.38432155 
H    0.12265201   1.19375513  -0.88463511 
*
