! EnGrad PBEh-3c
%output 
xyzfile=True 
end 
%scf 
maxiter 250 
end
%output
Print[P_Hirshfeld] = 1
end
% maxcore
4000
*xyz -1 1
Pt  -0.99751650  -0.89371694   0.53174849 
Cl  -0.24999351  -0.54063603   2.69061306 
Cl  -2.67509480  -2.23279227   1.16751550 
Cl  -1.56829801  -1.08595658  -1.69735463 
C    1.08613914   0.95262772  -0.53552470 
H    1.48490511   1.81585658   0.01236142 
H    1.13008079   0.08580394   0.12472303 
H    1.69867849   0.71330100  -1.41476609 
H    0.07808785   1.18519822  -0.87835260 
*
