! EnGrad PBEh-3c
%output 
xyzfile=True 
end 
%scf 
maxiter 250 
end
%output
Print[P_Hirshfeld] = 1
end
% maxcore
4000
*xyz -1 1
Pt  -0.93595163  -0.87257970   0.51816635 
Cl  -0.23533482  -0.49648905   2.70059390 
Cl  -2.63979829  -2.17798752   1.14454913 
Cl  -1.52596300  -1.11181485  -1.71591797 
C    1.08061892   0.87497141  -0.47482405 
H    1.44178648   1.78674252   0.01242791 
H    1.18462055  -0.07756079   0.17568170 
H    1.61194259   0.73590512  -1.40946376 
H    0.01499274   1.33810376  -0.95093465 
*
