! EnGrad PBEh-3c
%output 
xyzfile=True 
end 
%scf 
maxiter 250 
end
%output
Print[P_Hirshfeld] = 1
end
% maxcore
4000
*xyz -1 1
Pt  -0.94044725  -0.85802419   0.51726911 
Cl  -0.23879733  -0.51077999   2.71711281 
Cl  -2.67363764  -2.21643289   1.15509865 
Cl  -1.54895660  -1.11205047  -1.72354584 
C    1.02752754   0.96191024  -0.54214298 
H    1.44544104   1.81069241  -0.00235804 
H    1.26413318  -0.16811602   0.27129189 
H    1.62867245   0.73438316  -1.41199459 
H    0.03482412   1.35812963  -0.98061333 
*
