! EnGrad PBEh-3c
%output 
xyzfile=True 
end 
%scf 
maxiter 250 
end
%output
Print[P_Hirshfeld] = 1
end
% maxcore
4000
*xyz -1 1
Pt  -0.91790115  -0.86362091   0.50466661 
Cl  -0.22164297  -0.46445265   2.67841475 
Cl  -2.61938224  -2.14363009   1.14420178 
Cl  -1.48427585  -1.11829744  -1.71908184 
C    1.02995010   0.92788103  -0.52030488 
H    1.45557345   1.71711344   0.06375623 
H    1.08398618  -0.00933539   0.08569184 
H    1.60009203   0.71895676  -1.40001688 
H    0.06484250   1.23512789  -0.83574961 
*
