21
Generated by autodE on: 2023-07-13. E = -1104.490035 Ha
Sc    0.31964  -0.36645  -2.08395
C     0.11613  -0.35340   0.20096
N    -0.46476  -1.31364   0.94353
C    -0.46454  -0.97586   2.26709
C     0.13186   0.23532   2.35675
N     0.47508   0.59590   1.08434
C     1.15514   1.83815   0.76221
H     0.65842   2.67072   1.25438
H     1.11969   2.01675  -0.30950
H     2.19357   1.80038   1.08526
C    -1.00751  -2.56363   0.43579
H    -1.14437  -2.50642  -0.64250
H    -1.97992  -2.75074   0.88449
H    -0.34103  -3.39101   0.67115
H    -0.88639  -1.60447   3.03283
H     0.32606   0.85626   3.21477
C     0.19416   1.56325  -2.95042
H    -0.27161   1.46880  -3.94099
H     1.14529   2.08843  -3.09899
H    -0.45523   2.23315  -2.37277
H    -0.81965  -1.54149  -2.79443
21
Generated by autodE on: 2023-07-13. E = -1104.489681 Ha
Sc    0.40997  -0.36339  -2.08039
C     0.13701  -0.37173   0.19751
N    -0.46422  -1.31854   0.94093
C    -0.48848  -0.96220   2.26011
C     0.11296   0.24733   2.34499
N     0.48260   0.58809   1.07450
C     1.17626   1.82253   0.74994
H     0.70883   2.65272   1.27380
H     1.10813   2.02652  -0.31683
H     2.22386   1.76184   1.03987
C    -1.00525  -2.57357   0.44199
H    -1.10682  -2.53494  -0.64120
H    -1.99411  -2.74214   0.86274
H    -0.35487  -3.40239   0.71654
H    -0.92948  -1.57941   3.02456
H     0.29588   0.88308   3.19466
C     0.17572   1.55620  -2.93266
H    -0.29942   1.44317  -3.91750
H     1.09795   2.12558  -3.08840
H    -0.49864   2.18537  -2.33884
H    -0.79052  -1.44561  -2.80429
21
Generated by autodE on: 2023-07-13. E = -1104.489354 Ha
Sc    0.47075  -0.36159  -2.09041
C     0.17103  -0.38976   0.19000
N    -0.45607  -1.32208   0.93222
C    -0.51968  -0.94249   2.24286
C     0.08360   0.26402   2.32702
N     0.49269   0.58261   1.06387
C     1.20617   1.80313   0.73800
H     0.79045   2.63447   1.30242
H     1.08662   2.03058  -0.31788
H     2.26383   1.70743   0.97626
C    -0.99760  -2.57970   0.44471
H    -1.05047  -2.56978  -0.64083
H    -2.00590  -2.71802   0.82805
H    -0.37695  -3.41197   0.77075
H    -0.98893  -1.53672   3.00845
H     0.24015   0.90531   3.17701
C     0.17494   1.56462  -2.89323
H    -0.31779   1.39754  -3.86166
H     1.03047   2.22094  -3.08218
H    -0.54679   2.12984  -2.29243
H    -0.76724  -1.41407  -2.80925
21
Generated by autodE on: 2023-07-13. E = -1104.488641 Ha
Sc    0.52542  -0.36369  -2.08676
C     0.20005  -0.40731   0.18720
N    -0.45032  -1.32544   0.92554
C    -0.54968  -0.92453   2.22789
C     0.05689   0.28015   2.31015
N     0.50288   0.57736   1.05438
C     1.23511   1.78572   0.72477
H     0.86847   2.61261   1.32827
H     1.07183   2.04132  -0.31959
H     2.29966   1.65705   0.91340
C    -0.99075  -2.58637   0.44685
H    -0.99772  -2.60418  -0.64044
H    -2.01644  -2.69721   0.79192
H    -0.39839  -3.41941   0.82134
H    -1.04566  -1.50139   2.98853
H     0.19021   0.93164   3.15591
C     0.16942   1.57030  -2.85980
H    -0.33336   1.36038  -3.81735
H     0.95713   2.30021  -3.07066
H    -0.58687   2.07852  -2.24616
H    -0.73579  -1.37362  -2.81064
21
Generated by autodE on: 2023-07-13. E = -1104.489195 Ha
Sc    0.55604  -0.36331  -2.07642
C     0.22176  -0.40486   0.17796
N    -0.46760  -1.30256   0.90486
C    -0.61341  -0.87551   2.19415
C     0.00394   0.32668   2.27734
N     0.50512   0.59281   1.03588
C     1.30308   1.76410   0.71660
H     1.06832   2.56937   1.40847
H     1.07227   2.11839  -0.28630
H     2.36614   1.53898   0.79664
C    -0.97663  -2.57844   0.42164
H    -0.85858  -2.63818  -0.65736
H    -2.03596  -2.67673   0.65211
H    -0.43486  -3.39939   0.88820
H    -1.14012  -1.44631   2.94036
H     0.11387   1.00662   3.10449
C     0.07495   1.56953  -2.79895
H    -0.39841   1.44541  -3.78423
H     0.88548   2.29810  -2.92414
H    -0.68850   2.03514  -2.16105
H    -0.58340  -1.54082  -2.74778
21
Generated by autodE on: 2023-07-13. E = -1104.488768 Ha
Sc    0.61052  -0.35568  -2.07460
C     0.24774  -0.41666   0.17717
N    -0.46582  -1.29919   0.89647
C    -0.64788  -0.85184   2.17561
C    -0.02543   0.34742   2.25825
N     0.51421   0.59060   1.02811
C     1.33485   1.74559   0.70484
H     1.16518   2.53137   1.43494
H     1.06812   2.14411  -0.27167
H     2.39201   1.48479   0.72411
C    -0.96753  -2.57987   0.41913
H    -0.79599  -2.67344  -0.65035
H    -2.03783  -2.65418   0.59583
H    -0.46308  -3.39398   0.93494
H    -1.20091  -1.40591   2.91578
H     0.06323   1.03773   3.08025
C     0.04690   1.56715  -2.76308
H    -0.42437   1.43775  -3.74740
H     0.81065   2.34353  -2.88361
H    -0.73449   1.98276  -2.11166
H    -0.52515  -1.53364  -2.74285
21
Generated by autodE on: 2023-07-13. E = -1104.488260 Ha
Sc    0.66133  -0.34380  -2.07260
C     0.28492  -0.42613   0.17555
N    -0.46403  -1.28905   0.88200
C    -0.69283  -0.81566   2.14360
C    -0.06083   0.37758   2.23138
N     0.53000   0.59288   1.01942
C     1.37488   1.72786   0.69647
H     1.29593   2.47670   1.47826
H     1.06087   2.18751  -0.23963
H     2.41597   1.41588   0.62818
C    -0.95666  -2.57390   0.41209
H    -0.70771  -2.70880  -0.63703
H    -2.03829  -2.61970   0.51449
H    -0.50501  -3.37643   0.99163
H    -1.27870  -1.34649   2.87428
H     0.00229   1.07145   3.05183
C    -0.00491   1.55957  -2.71900
H    -0.47314   1.44238  -3.70672
H     0.72234   2.37303  -2.80914
H    -0.79862   1.91322  -2.04689
H    -0.42662  -1.56965  -2.74610
21
Generated by autodE on: 2023-07-13. E = -1104.487535 Ha
Sc    0.71108  -0.33042  -2.06657
C     0.31908  -0.43875   0.17788
N    -0.46083  -1.28241   0.87261
C    -0.72854  -0.78648   2.11774
C    -0.08578   0.40075   2.20932
N     0.54962   0.58906   1.01458
C     1.40771   1.71323   0.68932
H     1.40292   2.42550   1.50732
H     1.05300   2.22508  -0.20440
H     2.43179   1.37517   0.54366
C    -0.95060  -2.57052   0.41145
H    -0.63906  -2.74155  -0.61470
H    -2.03689  -2.59345   0.45096
H    -0.55171  -3.36390   1.04053
H    -1.35039  -1.30069   2.83040
H    -0.04295   1.10693   3.02049
C    -0.04307   1.54786  -2.68027
H    -0.51553   1.42248  -3.66396
H     0.63268   2.40744  -2.76171
H    -0.85281   1.83359  -1.99378
H    -0.34119  -1.55814  -2.77132
21
Generated by autodE on: 2023-07-13. E = -1104.486804 Ha
Sc    0.75928  -0.32709  -2.06606
C     0.36386  -0.44863   0.18140
N    -0.46095  -1.26511   0.85677
C    -0.77756  -0.73942   2.07801
C    -0.11475   0.43649   2.17707
N     0.58057   0.58810   1.01133
C     1.45219   1.70417   0.69142
H     1.56519   2.34828   1.55719
H     1.03722   2.29348  -0.12339
H     2.44398   1.33953   0.42830
C    -0.94479  -2.55813   0.40247
H    -0.54083  -2.77954  -0.58113
H    -2.03026  -2.55479   0.34152
H    -0.62978  -3.33225   1.09814
H    -1.44400  -1.22908   2.76615
H    -0.09194   1.16028   2.97337
C    -0.10848   1.52548  -2.62224
H    -0.58185   1.40439  -3.60554
H     0.50044   2.42997  -2.67306
H    -0.93240   1.72744  -1.92436
H    -0.19046  -1.60503  -2.83038
21
Generated by autodE on: 2023-07-13. E = -1104.485590 Ha
Sc    0.82147  -0.30749  -2.05450
C     0.39907  -0.46633   0.18871
N    -0.45868  -1.26005   0.85060
C    -0.80717  -0.71104   2.05150
C    -0.13323   0.45815   2.15456
N     0.60328   0.57982   1.00928
C     1.47827   1.69232   0.68620
H     1.66090   2.28955   1.57517
H     1.03272   2.32926  -0.07601
H     2.44471   1.31891   0.34775
C    -0.94147  -2.55611   0.40497
H    -0.48554  -2.81359  -0.54592
H    -2.02186  -2.53145   0.28255
H    -0.68360  -3.31527   1.14092
H    -1.51008  -1.18146   2.71996
H    -0.12678   1.19508   2.93917
C    -0.14753   1.50596  -2.58719
H    -0.62387   1.36833  -3.56683
H     0.39594   2.45367  -2.63124
H    -0.97600   1.63972  -1.87665
H    -0.10323  -1.55662  -2.87966
21
Generated by autodE on: 2023-07-13. E = -1104.483764 Ha
Sc    0.88174  -0.27611  -2.04081
C     0.43039  -0.48882   0.19669
N    -0.45256  -1.26220   0.84751
C    -0.83135  -0.68779   2.02926
C    -0.14671   0.47484   2.13245
N     0.62311   0.56872   1.00636
C     1.49762   1.68036   0.68082
H     1.73544   2.23938   1.58117
H     1.02721   2.35308  -0.03485
H     2.44098   1.30869   0.27927
C    -0.94239  -2.55879   0.41215
H    -0.44628  -2.85005  -0.50855
H    -2.01603  -2.51818   0.23848
H    -0.73255  -3.30421   1.17652
H    -1.55846  -1.13946   2.68206
H    -0.15497   1.22577   2.90384
C    -0.17325   1.49120  -2.55470
H    -0.64792   1.30773  -3.53003
H     0.29005   2.47972  -2.60939
H    -1.00053   1.55745  -1.83642
H    -0.03756  -1.46542  -2.93169
21
Generated by autodE on: 2023-07-13. E = -1104.481392 Ha
Sc    0.94434  -0.23572  -2.02795
C     0.45960  -0.50768   0.19850
N    -0.45133  -1.25940   0.83826
C    -0.85673  -0.65521   1.99748
C    -0.16254   0.50154   2.09679
N     0.64251   0.56191   0.99545
C     1.52190   1.67207   0.68011
H     1.84070   2.16737   1.59357
H     1.01709   2.39565   0.04150
H     2.42705   1.30605   0.19358
C    -0.94546  -2.55933   0.41138
H    -0.39300  -2.89855  -0.45968
H    -2.00347  -2.50458   0.16237
H    -0.80521  -3.28277   1.21275
H    -1.60021  -1.07889   2.65034
H    -0.18379   1.26923   2.85067
C    -0.21639   1.46636  -2.50574
H    -0.66690   1.22797  -3.47925
H     0.14624   2.49304  -2.56393
H    -1.04356   1.45762  -1.78325
H     0.07682  -1.37664  -3.01374
21
Generated by autodE on: 2023-07-13. E = -1104.478405 Ha
Sc    1.00308  -0.17149  -2.00865
C     0.46011  -0.51372   0.19028
N    -0.44690  -1.26126   0.83783
C    -0.86735  -0.63911   1.98125
C    -0.19231   0.52878   2.06258
N     0.62230   0.57561   0.96600
C     1.53165   1.66321   0.66331
H     1.95142   2.05981   1.58148
H     1.03348   2.46170   0.11745
H     2.37928   1.29135   0.08539
C    -0.93686  -2.56285   0.41744
H    -0.31018  -2.95359  -0.37621
H    -1.96210  -2.49001   0.06396
H    -0.89845  -3.25193   1.25895
H    -1.60687  -1.06781   2.63705
H    -0.22676   1.30979   2.80223
C    -0.27561   1.44720  -2.45170
H    -0.67439   1.17864  -3.44058
H    -0.00780   2.50457  -2.48975
H    -1.11728   1.35187  -1.75216
H     0.29631  -1.25476  -3.15986
21
Generated by autodE on: 2023-07-13. E = -1104.475215 Ha
Sc    1.00946  -0.09260  -2.01315
C     0.44451  -0.54506   0.18603
N    -0.44567  -1.29624   0.85405
C    -0.85787  -0.66878   1.99991
C    -0.19333   0.50643   2.06138
N     0.60898   0.54994   0.95500
C     1.50844   1.64423   0.64553
H     1.95398   2.02367   1.55984
H     0.99141   2.45404   0.13510
H     2.34203   1.29112   0.03474
C    -0.92289  -2.61161   0.45698
H    -0.23716  -3.04920  -0.26204
H    -1.91900  -2.55214   0.02166
H    -0.95523  -3.25732   1.33112
H    -1.57871  -1.09371   2.67714
H    -0.23778   1.29910   2.78856
C    -0.31604   1.48455  -2.46224
H    -0.65825   1.25549  -3.48301
H    -0.08427   2.55140  -2.43441
H    -1.17840   1.32151  -1.80137
H     0.62544  -1.03286  -3.42041
21
Generated by autodE on: 2023-07-13. E = -1104.471343 Ha
Sc    1.03290  -0.04048  -1.99918
C     0.43939  -0.57484   0.18013
N    -0.44200  -1.32364   0.86412
C    -0.85545  -0.68394   2.00255
C    -0.19694   0.49514   2.04885
N     0.59884   0.53082   0.93793
C     1.49501   1.62741   0.62656
H     1.94966   2.00211   1.54125
H     0.97179   2.44018   0.12661
H     2.33285   1.27989   0.01488
C    -0.91658  -2.64481   0.48483
H    -0.21336  -3.10347  -0.20147
H    -1.89843  -2.58340   0.01890
H    -0.98158  -3.27085   1.37330
H    -1.57526  -1.10533   2.68348
H    -0.23532   1.29391   2.76947
C    -0.33041   1.49895  -2.45468
H    -0.63426   1.25705  -3.48437
H    -0.14999   2.57519  -2.42376
H    -1.20456   1.30111  -1.82018
H     0.77889  -0.82373  -3.52352
21
Generated by autodE on: 2023-07-13. E = -1104.468530 Ha
Sc    0.98527   0.03695  -1.95014
C     0.47623  -0.63991   0.21857
N    -0.44558  -1.35703   0.87680
C    -0.90017  -0.68455   1.98212
C    -0.23075   0.48831   2.02846
N     0.61604   0.48469   0.95366
C     1.54512   1.54987   0.63381
H     1.91034   2.01747   1.54599
H     1.08368   2.32073   0.01306
H     2.43889   1.14001   0.15373
C    -0.92866  -2.67190   0.48991
H    -0.25436  -3.11194  -0.24016
H    -1.93094  -2.60621   0.07022
H    -0.95268  -3.32187   1.36229
H    -1.65112  -1.07892   2.64589
H    -0.29058   1.30634   2.72433
C    -0.51554   1.45461  -2.36689
H    -0.82101   1.20342  -3.39408
H    -0.32998   2.53128  -2.36270
H    -1.37626   1.26318  -1.71688
H     1.52513  -0.37468  -3.57103
21
Generated by autodE on: 2023-07-13. E = -1104.481503 Ha
Sc    0.63330  -0.34287  -2.13791
C     0.37525  -0.53453   0.14602
N    -0.47782  -1.30576   0.84551
C    -0.82254  -0.71058   2.02961
C    -0.14343   0.45710   2.08360
N     0.59307   0.53404   0.93332
C     1.52917   1.60563   0.63097
H     1.88293   2.04488   1.56074
H     1.06420   2.38367   0.02911
H     2.39551   1.20235   0.11124
C    -0.94012  -2.62411   0.45413
H    -0.30165  -3.02594  -0.32912
H    -1.97420  -2.59598   0.11505
H    -0.86783  -3.29960   1.30354
H    -1.51299  -1.14927   2.72960
H    -0.13389   1.22417   2.83910
C    -0.69267   1.25815  -2.51521
H    -1.08066   1.22920  -3.54063
H    -0.16272   2.21501  -2.42326
H    -1.55702   1.29776  -1.84390
H     2.18778   0.21668  -2.78298
21
Generated by autodE on: 2023-07-13. E = -1104.485318 Ha
Sc    0.73854  -0.28768  -2.09307
C     0.31018  -0.47399   0.15027
N    -0.47475  -1.28800   0.87581
C    -0.69878  -0.76939   2.12224
C    -0.02603   0.40200   2.17706
N     0.58920   0.55622   0.96666
C     1.42968   1.68744   0.60510
H     1.84958   2.12750   1.50561
H     0.86029   2.44702   0.07007
H     2.26390   1.34826  -0.00884
C    -1.00305  -2.56207   0.42866
H    -0.43976  -2.90597  -0.43499
H    -2.05780  -2.48902   0.16902
H    -0.88328  -3.30598   1.21300
H    -1.29439  -1.26540   2.86896
H     0.06107   1.11804   2.97541
C    -0.70513   1.14003  -2.67959
H    -1.17335   0.97677  -3.65815
H    -0.19168   2.11089  -2.73764
H    -1.51023   1.24171  -1.94310
H     2.32574   0.47466  -2.34305
21
Generated by autodE on: 2023-07-13. E = -1104.485818 Ha
Sc    0.75385  -0.28919  -2.09355
C     0.29851  -0.45544   0.14892
N    -0.46748  -1.28128   0.88249
C    -0.66175  -0.78254   2.14210
C     0.01278   0.38833   2.19872
N     0.59621   0.56241   0.97439
C     1.39961   1.71892   0.60559
H     1.84850   2.14591   1.49840
H     0.78529   2.47493   0.11791
H     2.20619   1.41990  -0.06218
C    -1.01961  -2.54075   0.42453
H    -0.47071  -2.88374  -0.44817
H    -2.07363  -2.44340   0.17385
H    -0.90753  -3.29720   1.19672
H    -1.24580  -1.28999   2.89124
H     0.12360   1.09168   3.00665
C    -0.69224   1.11459  -2.72182
H    -1.16943   0.89780  -3.68265
H    -0.21272   2.09546  -2.82653
H    -1.49155   1.22365  -1.98016
H     2.33591   0.49515  -2.26329
21
Generated by autodE on: 2023-07-13. E = -1104.485623 Ha
Sc    0.76170  -0.29661  -2.09610
C     0.31866  -0.46952   0.14760
N    -0.45916  -1.28538   0.87802
C    -0.67375  -0.77145   2.12846
C     0.00168   0.39891   2.18174
N     0.60463   0.55754   0.96587
C     1.40746   1.71388   0.59643
H     1.87615   2.12843   1.48504
H     0.78700   2.47960   0.13342
H     2.19483   1.41754  -0.09395
C    -1.01697  -2.54457   0.42702
H    -0.45463  -2.91230  -0.42774
H    -2.06421  -2.43313   0.15394
H    -0.93227  -3.28881   1.21520
H    -1.27628  -1.26925   2.86931
H     0.10462   1.11256   2.98028
C    -0.69144   1.11305  -2.69728
H    -1.15747   0.89336  -3.66573
H    -0.22359   2.09968  -2.79708
H    -1.50009   1.21154  -1.96405
H     2.32801   0.51252  -2.27893
21
Generated by autodE on: 2023-07-13. E = -1104.484930 Ha
Sc    0.76901  -0.30913  -2.10225
C     0.34746  -0.49804   0.14303
N    -0.45119  -1.29707   0.87095
C    -0.70579  -0.74891   2.09952
C    -0.03455   0.42410   2.14322
N     0.60855   0.54971   0.94351
C     1.42850   1.69153   0.57174
H     1.92954   2.08422   1.45282
H     0.81953   2.47945   0.13397
H     2.19563   1.38308  -0.13762
C    -1.00290  -2.56479   0.43576
H    -0.40478  -2.97309  -0.37638
H    -2.03599  -2.45125   0.10869
H    -0.96679  -3.27749   1.25679
H    -1.32734  -1.22790   2.83707
H     0.03658   1.16038   2.92496
C    -0.69407   1.11308  -2.65626
H    -1.14240   0.95589  -3.64586
H    -0.20098   2.09416  -2.69808
H    -1.51404   1.19430  -1.93296
H     2.29418   0.56110  -2.31678
21
Generated by autodE on: 2023-07-13. E = -1104.483520 Ha
Sc    0.78311  -0.31623  -2.10806
C     0.37612  -0.53212   0.13942
N    -0.44573  -1.31119   0.86428
C    -0.74050  -0.72645   2.06569
C    -0.07107   0.44760   2.09950
N     0.61393   0.53685   0.92038
C     1.45497   1.66455   0.55142
H     1.97056   2.03913   1.43018
H     0.85710   2.46791   0.12712
H     2.20840   1.35197  -0.16570
C    -0.98977  -2.59154   0.45316
H    -0.36521  -3.03417  -0.31749
H    -2.00670  -2.48249   0.08162
H    -0.99503  -3.27299   1.29869
H    -1.38887  -1.18258   2.79366
H    -0.02985   1.20823   2.86005
C    -0.68667   1.11895  -2.60935
H    -1.11124   0.99268  -3.61149
H    -0.19905   2.10268  -2.61428
H    -1.52001   1.17419  -1.90068
H     2.23868   0.64644  -2.37048
21
Generated by autodE on: 2023-07-13. E = -1104.481307 Ha
Sc    0.81204  -0.30295  -2.10800
C     0.40787  -0.56812   0.14321
N    -0.44914  -1.32018   0.85783
C    -0.79518  -0.69471   2.02440
C    -0.12192   0.47686   2.04856
N     0.61706   0.52384   0.89981
C     1.49787   1.62701   0.54553
H     2.01280   1.97980   1.43526
H     0.93393   2.44765   0.10426
H     2.25737   1.29266  -0.15848
C    -0.97554  -2.61648   0.47299
H    -0.32867  -3.07692  -0.26780
H    -1.98280  -2.52855   0.07259
H    -0.99970  -3.27392   1.33859
H    -1.47658  -1.12419   2.73799
H    -0.11374   1.26194   2.78443
C    -0.68642   1.11450  -2.55869
H    -1.10494   1.00238  -3.56638
H    -0.22893   2.11352  -2.54115
H    -1.51780   1.12791  -1.84778
H     2.17518   0.77028  -2.40798
21
Generated by autodE on: 2023-07-13. E = -1104.478081 Ha
Sc    0.84414  -0.28912  -2.09553
C     0.42829  -0.59716   0.15275
N    -0.45786  -1.32943   0.85427
C    -0.83732  -0.67752   1.99615
C    -0.15554   0.48914   2.02002
N     0.62240   0.50669   0.89679
C     1.52677   1.59466   0.55517
H     2.01830   1.95471   1.45498
H     0.98997   2.41136   0.07609
H     2.30757   1.24436  -0.11840
C    -0.96510  -2.64138   0.49484
H    -0.31146  -3.10404  -0.23975
H    -1.97733  -2.57532   0.09951
H    -0.97487  -3.28281   1.37446
H    -1.54927  -1.08538   2.69347
H    -0.16466   1.29065   2.73782
C    -0.66538   1.12686  -2.54597
H    -1.09348   0.98564  -3.54597
H    -0.27421   2.15167  -2.53678
H    -1.48216   1.08917  -1.82005
H     2.08983   0.89784  -2.43018
21
Generated by autodE on: 2023-07-13. E = -1104.472975 Ha
Sc    0.88465  -0.27229  -2.08527
C     0.44454  -0.62649   0.16087
N    -0.46128  -1.34344   0.85365
C    -0.86753  -0.66794   1.97277
C    -0.18092   0.49556   1.99521
N     0.62469   0.48899   0.89236
C     1.54102   1.56636   0.55432
H     2.01836   1.93457   1.45816
H     1.01880   2.37893   0.05484
H     2.33215   1.20322  -0.09833
C    -0.95248  -2.66925   0.52221
H    -0.28976  -3.14324  -0.19662
H    -1.96348  -2.62250   0.12063
H    -0.96108  -3.28829   1.41811
H    -1.60510  -1.05572   2.65439
H    -0.20703   1.31222   2.69579
C    -0.62925   1.14654  -2.54652
H    -1.05443   0.97580  -3.54354
H    -0.31588   2.19732  -2.54202
H    -1.43379   1.05168  -1.81029
H     1.98710   1.03561  -2.44829
21
Generated by autodE on: 2023-07-13. E = -1104.465452 Ha
Sc    0.93323  -0.26080  -2.07288
C     0.46161  -0.65420   0.17255
N    -0.45902  -1.35880   0.85957
C    -0.89289  -0.66073   1.95477
C    -0.20878   0.50444   1.97006
N     0.62255   0.47498   0.88649
C     1.54782   1.54198   0.54931
H     2.01774   1.91554   1.45515
H     1.03785   2.35508   0.03849
H     2.34400   1.16379  -0.08939
C    -0.93935  -2.69452   0.54898
H    -0.26826  -3.18186  -0.15108
H    -1.94327  -2.66021   0.13172
H    -0.95805  -3.29422   1.45635
H    -1.64934  -1.03262   2.62502
H    -0.24939   1.33714   2.64975
C    -0.58204   1.16834  -2.54605
H    -0.99152   0.96040  -3.54406
H    -0.36193   2.24436  -2.55233
H    -1.37701   1.01558  -1.80917
H     1.86247   1.15902  -2.46908
21
Generated by autodE on: 2023-07-13. E = -1104.454748 Ha
Sc    0.98498  -0.27203  -2.05692
C     0.48559  -0.68228   0.19376
N    -0.45016  -1.37483   0.87427
C    -0.91130  -0.65567   1.94537
C    -0.23166   0.51178   1.95166
N     0.62466   0.46176   0.88884
C     1.54904   1.52693   0.54312
H     2.01495   1.91446   1.44514
H     1.03914   2.33058   0.01714
H     2.34946   1.14227  -0.08657
C    -0.93309  -2.71065   0.56943
H    -0.25794  -3.20360  -0.12234
H    -1.93229  -2.67379   0.14066
H    -0.96457  -3.30482   1.48069
H    -1.67883  -1.01751   2.60832
H    -0.28875   1.35817   2.61299
C    -0.52566   1.18772  -2.55333
H    -0.91269   0.94326  -3.55243
H    -0.40253   2.27731  -2.57577
H    -1.30908   0.99274  -1.81636
H     1.71360   1.24965  -2.46894
21
Generated by autodE on: 2023-07-13. E = -1104.439374 Ha
Sc    1.02621  -0.31704  -2.03231
C     0.50654  -0.70564   0.21661
N    -0.44176  -1.38744   0.88981
C    -0.92405  -0.65231   1.94092
C    -0.24739   0.51707   1.94021
N     0.62984   0.45079   0.89531
C     1.54849   1.51851   0.54070
H     2.01264   1.92000   1.43780
H     1.03513   2.31102   0.00028
H     2.35347   1.13382  -0.08306
C    -0.93068  -2.72040   0.58359
H    -0.25202  -3.21586  -0.10517
H    -1.92731  -2.67728   0.14715
H    -0.97338  -3.31455   1.49545
H    -1.69859  -1.00823   2.59824
H    -0.32188   1.37517   2.58646
C    -0.46897   1.21618  -2.56872
H    -0.83260   0.93931  -3.56795
H    -0.43884   2.31679  -2.60205
H    -1.23546   0.98018  -1.82462
H     1.55828   1.29712  -2.47415
21
Generated by autodE on: 2023-07-13. E = -1104.433691 Ha
Sc    0.85698  -0.35621  -2.10278
C     0.48732  -0.67543   0.20571
N    -0.44393  -1.36995   0.88826
C    -0.91197  -0.65364   1.95798
C    -0.23878   0.51728   1.96284
N     0.62174   0.47073   0.90045
C     1.54639   1.53883   0.56265
H     2.00312   1.92763   1.46871
H     1.03692   2.34239   0.03563
H     2.34555   1.15541  -0.06693
C    -0.92268  -2.70232   0.57067
H    -0.24222  -3.18707  -0.12319
H    -1.92144  -2.66372   0.13869
H    -0.95767  -3.30417   1.47698
H    -1.67596  -1.02370   2.62056
H    -0.30937   1.36568   2.62256
C    -0.41081   1.22293  -2.59991
H    -0.74631   0.89506  -3.59493
H    -0.39990   2.31333  -2.63516
H    -1.14839   0.94162  -1.82993
H     1.40008   1.24477  -2.45133
21
Generated by autodE on: 2023-07-13. E = -1104.424627 Ha
Sc    0.84106  -0.40219  -2.10107
C     0.48880  -0.67792   0.20918
N    -0.44476  -1.37077   0.89036
C    -0.91369  -0.65338   1.95969
C    -0.23929   0.51676   1.96541
N     0.62352   0.46901   0.90354
C     1.54703   1.53746   0.56193
H     2.00163   1.93404   1.46597
H     1.03497   2.33900   0.03460
H     2.34661   1.15387  -0.06642
C    -0.92266  -2.70272   0.56974
H    -0.24089  -3.18413  -0.12488
H    -1.91933  -2.66286   0.13497
H    -0.95861  -3.30780   1.47385
H    -1.67894  -1.02259   2.62215
H    -0.30960   1.36180   2.62799
C    -0.36628   1.24140  -2.60721
H    -0.69997   0.89365  -3.59830
H    -0.41076   2.33004  -2.64321
H    -1.09016   0.92855  -1.82878
H     1.28036   1.26304  -2.44991
