21
Generated by autodE on: 2023-07-13. E = -1104.454289 Ha
Sc    1.69148  -1.47736  -1.54143
C     0.53759  -0.77390   0.25469
N    -0.44476  -1.41618   0.91369
C    -0.93745  -0.64583   1.92857
C    -0.24356   0.51473   1.90574
N     0.65182   0.41381   0.87901
C     1.56466   1.48424   0.51834
H     2.03512   1.88367   1.41347
H     1.03331   2.28042   0.00126
H     2.34836   1.10255  -0.13211
C    -0.95510  -2.74249   0.61366
H    -0.29603  -3.24467  -0.09002
H    -1.94968  -2.67708   0.17754
H    -0.99706  -3.33574   1.52404
H    -1.72669  -0.97534   2.58256
H    -0.31604   1.38461   2.53599
C    -0.39662   1.64085  -2.69436
H    -0.67563   1.10695  -3.59866
H    -0.83342   2.63557  -2.72231
H    -0.77758   1.10882  -1.82420
H     0.68730   1.73239  -2.64548
21
Generated by autodE on: 2023-07-13. E = -1104.453942 Ha
Sc    1.60992  -1.33888  -1.63010
C     0.52815  -0.75810   0.24891
N    -0.44697  -1.40938   0.90997
C    -0.93624  -0.64609   1.93282
C    -0.24488   0.51615   1.91514
N     0.64551   0.42371   0.88310
C     1.56116   1.49203   0.52345
H     2.03100   1.89183   1.41856
H     1.03396   2.28796   0.00234
H     2.34831   1.10716  -0.12217
C    -0.95104  -2.73861   0.60860
H    -0.28773  -3.23745  -0.09322
H    -1.94572  -2.67786   0.17205
H    -0.99321  -3.33157   1.51950
H    -1.72319  -0.98109   2.58694
H    -0.31733   1.38401   2.54816
C    -0.38084   1.59754  -2.68159
H    -0.66943   1.08046  -3.59308
H    -0.76960   2.61225  -2.70963
H    -0.80112   1.08134  -1.81961
H     0.70669   1.64507  -2.61796
21
Generated by autodE on: 2023-07-13. E = -1104.452842 Ha
Sc    1.51942  -1.20852  -1.72379
C     0.51448  -0.73576   0.23444
N    -0.45029  -1.39835   0.90161
C    -0.93289  -0.64666   1.93743
C    -0.24519   0.51752   1.92635
N     0.63667   0.43723   0.88525
C     1.55587   1.50312   0.53038
H     2.02370   1.90360   1.42642
H     1.03523   2.30048   0.00498
H     2.34680   1.11275  -0.10811
C    -0.94579  -2.73129   0.60117
H    -0.27656  -3.22565  -0.09772
H    -1.94048  -2.67883   0.16392
H    -0.98668  -3.32368   1.51288
H    -1.71615  -0.98842   2.59272
H    -0.31799   1.38045   2.56611
C    -0.36211   1.54861  -2.66696
H    -0.66284   1.05293  -3.58666
H    -0.70022   2.58110  -2.69575
H    -0.82608   1.05209  -1.81498
H     0.72595   1.55224  -2.58771
21
Generated by autodE on: 2023-07-13. E = -1104.451166 Ha
Sc    1.37876  -1.12210  -1.81416
C     0.47371  -0.68105   0.19142
N    -0.46584  -1.36784   0.86985
C    -0.92024  -0.64813   1.94038
C    -0.23829   0.51777   1.94343
N     0.61335   0.47180   0.87468
C     1.54424   1.53224   0.53958
H     1.99603   1.92732   1.44635
H     1.04128   2.33836   0.01058
H     2.34338   1.13048  -0.08169
C    -0.93559  -2.70979   0.57565
H    -0.25371  -3.19677  -0.11624
H    -1.93046  -2.68120   0.13803
H    -0.96489  -3.29230   1.49415
H    -1.68520  -1.01016   2.60536
H    -0.30338   1.36061   2.60983
C    -0.33896   1.47224  -2.64393
H    -0.64891   1.00955  -3.57800
H    -0.60562   2.52428  -2.66873
H    -0.86439   1.01326  -1.80795
H     0.75247   1.43458  -2.54298
21
Generated by autodE on: 2023-07-13. E = -1104.447233 Ha
Sc    1.26752  -0.98694  -1.90505
C     0.45306  -0.65117   0.17275
N    -0.47191  -1.35241   0.85696
C    -0.91534  -0.64873   1.94408
C    -0.23706   0.51885   1.95495
N     0.60129   0.48993   0.87448
C     1.53726   1.54696   0.54597
H     1.98341   1.94087   1.45620
H     1.04402   2.35654   0.01219
H     2.34196   1.14153  -0.06679
C    -0.92965  -2.69906   0.56285
H    -0.24100  -3.18154  -0.12550
H    -1.92453  -2.68306   0.12424
H    -0.95495  -3.27913   1.48341
H    -1.67099  -1.02239   2.61315
H    -0.29699   1.35272   2.63271
C    -0.31679   1.41006  -2.62353
H    -0.64471   0.97699  -3.56784
H    -0.52768   2.47485  -2.64850
H    -0.90236   0.98214  -1.80512
H     0.78824   1.34133  -2.50970
21
Generated by autodE on: 2023-07-13. E = -1104.439669 Ha
Sc    1.18413  -0.80797  -1.96644
C     0.45535  -0.65322   0.17880
N    -0.46817  -1.35691   0.86446
C    -0.91698  -0.64946   1.94920
C    -0.23851   0.51934   1.95939
N     0.60544   0.48509   0.88319
C     1.53830   1.54305   0.54485
H     1.98954   1.94116   1.45058
H     1.03939   2.34787   0.00907
H     2.34064   1.14259  -0.07548
C    -0.93079  -2.70214   0.56346
H    -0.24546  -3.18446  -0.12759
H    -1.92537  -2.68134   0.12421
H    -0.96114  -3.29025   1.47940
H    -1.67508  -1.02389   2.61613
H    -0.29507   1.36030   2.62890
C    -0.29686   1.35768  -2.60360
H    -0.64338   0.95016  -3.55639
H    -0.48143   2.42632  -2.62730
H    -0.92996   0.95902  -1.80036
H     0.83319   1.32551  -2.49630
21
Generated by autodE on: 2023-07-13. E = -1104.432314 Ha
Sc    0.90585  -0.58283  -2.03866
C     0.50723  -0.70160   0.22800
N    -0.43873  -1.38282   0.90033
C    -0.92166  -0.65124   1.95216
C    -0.24578   0.51829   1.95467
N     0.63240   0.45758   0.90634
C     1.55184   1.52552   0.55657
H     2.00877   1.92985   1.45596
H     1.03461   2.32591   0.02846
H     2.34986   1.14210  -0.07497
C    -0.92427  -2.71229   0.57788
H    -0.24771  -3.19748  -0.11871
H    -1.91936  -2.66348   0.13993
H    -0.96645  -3.31469   1.48350
H    -1.69120  -1.01510   2.61076
H    -0.31658   1.36767   2.61129
C    -0.25464   1.32446  -2.62530
H    -0.63382   0.92119  -3.57788
H    -0.47327   2.38697  -2.64937
H    -0.91958   0.94529  -1.81171
H     0.93473   1.35673  -2.49913
