! EnGrad PBEh-3c
%output 
xyzfile=True 
end 
%scf 
maxiter 250 
end
%output
Print[P_Hirshfeld] = 1
end
% maxcore
4000
*xyz -1 1
C   -2.72198520  -0.43279908   0.74446743 
C   -2.08306104   0.87965602   1.18224821 
C   -3.98539967  -0.60277358   1.38836334 
C   -4.66568286   0.33283159   2.13940219 
C   -4.03202439   1.51776761   2.48783207 
C   -2.74252722   1.74921869   2.07437203 
H   -2.42387648  -1.10522059  -0.01369064 
H   -4.47859966  -1.54161898   1.13718406 
H   -2.23081031   2.65679036   2.39548689 
H   -5.67270370   0.13626745   2.46856822 
H   -4.54997632   2.25507136   3.08179753 
C   -0.78106978   1.26859014   0.58367997 
C    0.39004509   0.54922758   1.28201410 
H   -0.61461768   2.35426116   0.64427931 
H   -0.79805821   1.05720170  -0.48003100 
C    1.67401154   0.60988241   0.51341948 
H    0.10795888  -0.48954362   1.46386105 
H    0.51933117   0.99234271   2.27855982 
C    1.88421847  -0.18236398  -0.62857520 
C    3.06864428  -0.01506387  -1.34880312 
C    3.99377802   0.95567160  -0.98539274 
C    2.65098609   1.51328397   0.90410849 
C    3.79356605   1.72131144   0.14725039 
H    3.25892917  -0.62721398  -2.21864123 
H    4.88619097   1.09335701  -1.58888656 
H    2.49562034   2.09176115   1.81149163 
H    4.48860614   2.50546683   0.41522453 
Pd   0.54591545  -1.56666021  -1.27581071 
Br  -1.14246895  -3.45694403  -1.76334597 
P    1.11377878  -2.93197960   0.39622626 
H    0.13199294  -3.29581653   1.32476632 
C    0.78771765  -0.79734685  -3.99289976 
O    1.75460372  -1.60225967  -4.11084532 
O    0.04046866  -0.62021975  -2.99307647 
O    0.49128835   0.00989940  -5.03741396 
H    2.15463016  -2.62064079   1.27326450 
H    1.54890917  -4.20853668   0.01190716 
H    1.14486778  -0.15199742  -5.71031148 
*
