! EnGrad PBEh-3c
%output 
xyzfile=True 
end 
%scf 
maxiter 250 
end
%output
Print[P_Hirshfeld] = 1
end
% maxcore
4000
*xyz -1 1
C   -2.75901943  -0.32359375   0.77120080 
C   -2.10600110   0.81152471   1.15982828 
C   -3.97335596  -0.61439600   1.31116879 
C   -4.65440099   0.32803705   2.10467904 
C   -4.05002653   1.50935637   2.47327171 
C   -2.73675882   1.71809805   2.03581734 
H   -2.38998103  -1.02120113   0.03758209 
H   -4.47166900  -1.53852084   1.11419866 
H   -2.23796281   2.63179523   2.40750475 
H   -5.69363307   0.15220059   2.38742414 
H   -4.57943783   2.26968635   3.04071260 
C   -0.75523888   1.27019668   0.61697348 
C    0.40933161   0.54186035   1.30692571 
H   -0.60753954   2.35630634   0.72047513 
H   -0.76555752   1.07834488  -0.45809729 
C    1.69336659   0.59084911   0.52920572 
H    0.10666303  -0.49253022   1.47400617 
H    0.54405740   0.98127909   2.29931335 
C    1.86729842  -0.18369488  -0.63790991 
C    3.05426392  -0.00559306  -1.35046974 
C    3.98766366   0.96351067  -0.99641216 
C    2.65342759   1.53425579   0.89935480 
C    3.80241148   1.72029311   0.14942131 
H    3.23343853  -0.61311259  -2.23239091 
H    4.86401190   1.11361869  -1.61127599 
H    2.52613523   2.07256479   1.83156184 
H    4.49967880   2.50325099   0.41610878 
Pd   0.52467030  -1.60713872  -1.28836746 
Br  -1.13902562  -3.47722544  -1.71597258 
P    1.13068448  -2.92884839   0.38888011 
H    0.16800188  -3.31303624   1.33854626 
C    0.77289673  -0.82980581  -3.97735564 
O    1.71346872  -1.57846779  -4.10832711 
O    0.01894892  -0.66895901  -2.97343258 
O    0.45925456   0.01734089  -5.01764584 
H    2.19477427  -2.62559645   1.26748330 
H    1.56360977  -4.20713343  -0.01126357 
H    1.13766644  -0.13267311  -5.69698156 
*
