! EnGrad PBEh-3c
%output 
xyzfile=True 
end 
%scf 
maxiter 250 
end
%output
Print[P_Hirshfeld] = 1
end
% maxcore
4000
*xyz 0 1
Pd   2.02788246   0.80107455  -0.50381700 
O   -0.41517695   2.50773023  -0.35547855 
O    0.05776416   0.34371568  -0.22622168 
O    3.85865452   1.71698448  -0.86401129 
O    3.19934471   1.45529126   1.16329216 
C   -0.76073107   1.25993192  -0.26933325 
C   -2.22919635   1.06514405  -0.08088550 
H   -2.68189811   1.88649937   0.47126950 
H   -2.40887800   0.12334947   0.42755472 
H   -2.70245870   1.03407787  -1.06357090 
C    4.14768701   1.65653232   0.37103920 
C    5.55373316   2.06122711   0.69239026 
H    5.69229385   2.09438157   1.77077037 
H    5.80485088   3.03405907   0.27218382 
H    6.25066014   1.33815272   0.26250513 
C    2.03000491   0.30254963  -2.78991763 
C    0.78813229   0.27497011  -3.39083418 
C    2.88439606  -0.78108043  -2.93061623 
C    0.45553867  -0.77548080  -4.23173225 
C    1.33026809  -1.82521393  -4.42825815 
C    2.50732479  -1.86495386  -3.70772874 
H   -0.46855466  -0.72197918  -4.79451640 
H    1.09190901  -2.61814688  -5.13279249 
H    0.66006619   3.11037842  -1.62988889 
H    0.08325604   1.09206274  -3.30051624 
H    3.84084652  -0.87034754  -2.42491932 
H    3.20387346  -2.68742692  -3.85262343 
*
