! EnGrad PBEh-3c
%output 
xyzfile=True 
end 
%scf 
maxiter 250 
end
%output
Print[P_Hirshfeld] = 1
end
% maxcore
4000
*xyz 0 1
Pd   2.04984536   1.02833873  -0.87626091 
O   -0.48751977   2.56154304  -0.78803677 
O    0.15680434   0.44003386  -0.37167210 
O    3.87390527   1.78548626  -0.85394148 
O    3.33242660   1.16703819   1.21451415 
C   -0.73213788   1.31723449  -0.43307602 
C   -2.11945789   1.10862354  -0.12654964 
H   -2.65818397   1.90206339   0.40162427 
H   -2.33500804   0.18732923   0.37894854 
H   -2.60098328   1.00177215  -1.08809103 
C    4.15250552   1.58111739   0.39250980 
C    5.56210483   1.93586316   0.72492295 
H    5.78265910   1.82110172   1.78132481 
H    5.81527542   2.94176146   0.38498802 
H    6.16905569   1.23837444   0.15595510 
C    1.89161008   0.34355945  -2.68346441 
C    0.69614168   0.33325484  -3.38850435 
C    2.92139143  -0.54464811  -2.98154643 
C    0.41000461  -0.77423734  -4.17211479 
C    1.30259512  -1.83291580  -4.23437495 
C    2.57029154  -1.68830958  -3.68459758 
H   -0.57568237  -0.86960866  -4.59902938 
H    1.00634494  -2.76686475  -4.70831374 
H    0.40647455   2.49836271  -1.27930105 
H   -0.02252397   1.14922598  -3.32955612 
H    3.95727991  -0.32878149  -2.70014760 
H    3.26304120  -2.51211464  -3.68040069 
*
