! EnGrad PBEh-3c
%output 
xyzfile=True 
end 
%scf 
maxiter 250 
end
%output
Print[P_Hirshfeld] = 1
end
% maxcore
4000
*xyz 0 1
Pd   2.06338265   1.06102871  -0.86377208 
O   -0.51914258   2.56201394  -0.84516153 
O    0.16019749   0.47817415  -0.42037358 
O    3.88441018   1.79710662  -0.85059072 
O    3.32995740   1.12638765   1.18048733 
C   -0.74549533   1.28723145  -0.42266274 
C   -2.14273296   1.09777974  -0.12860065 
H   -2.63942032   1.91132362   0.38610251 
H   -2.30253590   0.19754741   0.37460570 
H   -2.59047487   1.00006876  -1.10226297 
C    4.16466781   1.56978723   0.38883978 
C    5.57069380   1.91170860   0.72568306 
H    5.79267061   1.77613912   1.77895894 
H    5.81558552   2.92384657   0.40426386 
H    6.16669487   1.22091146   0.13701040 
C    1.88403337   0.38059264  -2.69252193 
C    0.67282666   0.33169873  -3.38101191 
C    2.91946373  -0.50320558  -2.99445083 
C    0.39558333  -0.78628887  -4.15336845 
C    1.30677763  -1.82757020  -4.21144256 
C    2.57458352  -1.66634152  -3.67358683 
H   -0.59062511  -0.89047282  -4.57645795 
H    0.99957911  -2.78255603  -4.62608410 
H    0.41620738   2.42493266  -1.25516443 
H   -0.04231504   1.15461446  -3.32834344 
H    3.95391993  -0.25139478  -2.72514269 
H    3.28581597  -2.47640597  -3.66867166 
*
