! EnGrad PBEh-3c
%output 
xyzfile=True 
end 
%scf 
maxiter 250 
end
%output
Print[P_Hirshfeld] = 1
end
% maxcore
4000
*xyz 0 1
Pd   2.05865981   1.12041715  -0.79628753 
O   -0.38254807   2.52099358  -0.91332458 
O    0.10489072   0.43313191  -0.43525634 
O    3.86751557   1.79751811  -0.86572540 
O    3.29815874   1.06724836   1.08052305 
C   -0.73674690   1.30148398  -0.39859005 
C   -2.21366477   1.04785341  -0.13269914 
H   -2.61944402   1.92582650   0.36981242 
H   -2.31024112   0.10856487   0.42575813 
H   -2.62870616   0.98079333  -1.15513057 
C    4.16298308   1.57745665   0.35797193 
C    5.58548979   1.85577704   0.71161294 
H    5.79851074   1.70634673   1.76495936 
H    5.80720841   2.87795483   0.42444351 
H    6.20344893   1.19356394   0.10003735 
C    1.88059433   0.52029335  -2.72169084 
C    0.65276778   0.34877738  -3.37237148 
C    2.88816902  -0.39812200  -3.01928826 
C    0.36906636  -0.80885238  -4.09633619 
C    1.31850895  -1.82018014  -4.15301905 
C    2.58859567  -1.61308853  -3.64153727 
H   -0.61325139  -0.92956095  -4.55258396 
H    1.02801120  -2.78805844  -4.49848339 
H    0.51600626   2.45538444  -1.31889204 
H   -0.08661903   1.14061204  -3.32281573 
H    3.89731954  -0.18175250  -2.71413702 
H    3.34232334  -2.40430474  -3.67047324 
*
