! EnGrad PBEh-3c
%output 
xyzfile=True 
end 
%scf 
maxiter 250 
end
%output
Print[P_Hirshfeld] = 1
end
% maxcore
4000
*xyz 0 1
Pd   2.04490930   1.14479884  -0.81625809 
O   -0.38982176   2.49406664  -0.93230101 
O    0.09830983   0.40570086  -0.42924337 
O    3.86985778   1.82534010  -0.88476937 
O    3.29316119   1.01794487   1.05455530 
C   -0.71422196   1.33229991  -0.45743871 
C   -2.19405591   1.03912673  -0.14370792 
H   -2.62309241   1.92117956   0.35776044 
H   -2.31318828   0.09759105   0.42961306 
H   -2.63637936   0.96340392  -1.16241020 
C    4.16417578   1.55093439   0.33890522 
C    5.58474580   1.81716992   0.70464436 
H    5.80775335   1.64713926   1.75519894 
H    5.80675872   2.84998209   0.44050896 
H    6.21132332   1.17373051   0.07341706 
C    1.85459461   0.57598528  -2.72842774 
C    0.63290347   0.36983560  -3.36917106 
C    2.87508871  -0.32947234  -3.02829716 
C    0.35765994  -0.81045671  -4.06160145 
C    1.31987910  -1.80949765  -4.09554344 
C    2.60211213  -1.56001355  -3.62466145 
H   -0.62579009  -0.96314037  -4.51616536 
H    1.03639187  -2.81338165  -4.40827474 
H    0.57838338   2.40018852  -1.33866963 
H   -0.12475487   1.13760981  -3.32403619 
H    3.88874164  -0.09920754  -2.72275694 
H    3.36877752  -2.33945909  -3.65373133 
*
