! EnGrad PBEh-3c
%output 
xyzfile=True 
end 
%scf 
maxiter 250 
end
%output
Print[P_Hirshfeld] = 1
end
% maxcore
4000
*xyz 0 1
Pd   2.05745411   0.86137933  -0.64689493 
O   -0.38063989   2.54129655  -0.43891775 
O    0.05465568   0.29966716  -0.23011793 
O    3.82204885   1.67698853  -0.86282831 
O    3.24387347   1.40767271   1.21546694 
C   -0.71900859   1.31853257  -0.25635604 
C   -2.23421506   1.04562263  -0.08428345 
H   -2.67811624   1.88476407   0.46375896 
H   -2.41913235   0.11982763   0.42537970 
H   -2.70068499   1.02742601  -1.06923905 
C    4.12638439   1.71388919   0.35556187 
C    5.55689165   2.02718207   0.72552085 
H    5.70766590   2.06828918   1.77000525 
H    5.79758682   3.02433177   0.27895593 
H    6.24588064   1.33011236   0.25223889 
C    1.99904100   0.31377530  -2.70245046 
C    0.77940836   0.29172523  -3.41474170 
C    2.90059893  -0.76220463  -2.93366194 
C    0.44373575  -0.76644371  -4.24067858 
C    1.31581033  -1.84474915  -4.40623396 
C    2.53163639  -1.85076962  -3.72058248 
H   -0.48187270  -0.74151646  -4.76986337 
H    1.08507206  -2.62730726  -5.09180939 
H    0.61638952   3.04357748  -1.57739055 
H    0.07500477   1.09397147  -3.30180656 
H    3.85389018  -0.80986093  -2.45937375 
H    3.20134498  -2.67329517  -3.82647554 
*
