! EnGrad PBEh-3c
%output 
xyzfile=True 
end 
%scf 
maxiter 250 
end
%output
Print[P_Hirshfeld] = 1
end
% maxcore
4000
*xyz 0 1
Pd   2.05620138   0.87356075  -0.67653794 
O   -0.36500164   2.55266691  -0.46783000 
O    0.04930303   0.31280184  -0.23421047 
O    3.81676268   1.67787563  -0.86744217 
O    3.25740764   1.39526469   1.21532014 
C   -0.70925391   1.30331476  -0.25797164 
C   -2.22647546   1.05271971  -0.08451461 
H   -2.67822006   1.88226786   0.45987189 
H   -2.42132160   0.11629818   0.42569812 
H   -2.69845355   1.02462125  -1.07199223 
C    4.12230171   1.71045632   0.37135006 
C    5.55419233   2.02855211   0.71658446 
H    5.71281641   2.05598674   1.77712842 
H    5.79701684   3.01486603   0.28618391 
H    6.24335790   1.32456557   0.24727005 
C    1.98980096   0.31168160  -2.69232589 
C    0.78291001   0.29671065  -3.41343225 
C    2.89532781  -0.74669135  -2.93708203 
C    0.44781974  -0.76855631  -4.23824880 
C    1.31488779  -1.84189802  -4.39116300 
C    2.53022373  -1.83741432  -3.72104670 
H   -0.49075389  -0.74882662  -4.76201920 
H    1.08073307  -2.63651068  -5.07739656 
H    0.59982303   3.01975501  -1.55929186 
H    0.06927270   1.09729175  -3.30404615 
H    3.86461983  -0.78640079  -2.47228181 
H    3.20542220  -2.67075602  -3.81722621 
*
