! EnGrad PBEh-3c
%output 
xyzfile=True 
end 
%scf 
maxiter 250 
end
%output
Print[P_Hirshfeld] = 1
end
% maxcore
4000
*xyz 0 1
Pd   1.69290494   0.94136385  -0.23461556 
O   -0.25610102   2.17944126  -0.30993584 
O   -0.10143396   0.01308631  -0.07053328 
O    3.32093855   2.14884976  -0.22939116 
O    3.41107728   0.15616224   0.55056715 
C   -0.81140425   1.03619107  -0.20780695 
C   -2.29822894   0.94052630  -0.24212068 
H   -2.75740918   1.85563258   0.12404159 
H   -2.64341674   0.08690730   0.33564178 
H   -2.61585214   0.80005611  -1.27675790 
C    4.02983892   1.19015596   0.18448551 
C    5.49664251   1.39142719   0.33721859 
H    5.87256434   0.83568816   1.19588792 
H    5.78340113   2.43533132   0.43417215 
H    5.99029495   1.00706144  -0.55923393 
C    1.87013706   1.14052900  -3.43824841 
C    0.58050283   0.63209572  -3.54395368 
C    2.96918771   0.29361765  -3.30158159 
C    0.39019529  -0.74287405  -3.47714353 
C    1.47409536  -1.58722583  -3.30164584 
C    2.74696366  -1.06758816  -3.12854552 
H   -0.60815227  -1.13739851  -3.61731849 
H    1.32508337  -2.66049218  -3.35665283 
H    1.65287584   2.89534627  -3.35654405 
H   -0.27890585   1.27676177  -3.68858827 
H    3.97527341   0.68649376  -3.38300093 
H    3.59052436  -1.73365912  -2.98504909 
*
