! EnGrad PBEh-3c
%output 
xyzfile=True 
end 
%scf 
maxiter 250 
end
%output
Print[P_Hirshfeld] = 1
end
% maxcore
4000
*xyz 0 1
Pd   1.70875288   1.13614257  -0.16134693 
O   -0.10967015   2.15971941  -0.52119344 
O   -0.00255200   0.06584888  -0.01679464 
O    3.41433805   2.15939806  -0.47661919 
O    3.40521546   0.44917110   0.79558729 
C   -0.71530757   1.08210559  -0.24870761 
C   -2.21116481   0.98562284  -0.18736539 
H   -2.66904808   1.86053762   0.26894432 
H   -2.51592441   0.10312408   0.36737345 
H   -2.61963398   0.89637918  -1.19323289 
C    4.06128719   1.39691672   0.29785846 
C    5.51231157   1.64650790   0.55308401 
H    5.83545250   1.34373181   1.54563090 
H    5.73674135   2.69691595   0.40024717 
H    6.09755747   1.06552720  -0.15974338 
C    1.77140752   0.97888348  -3.16097181 
C    0.48257376   0.54185449  -3.50982061 
C    2.86495636   0.08191875  -3.15068872 
C    0.27359623  -0.78679317  -3.85058267 
C    1.34944236  -1.65044340  -3.79894095 
C    2.62241653  -1.24292104  -3.44403047 
H   -0.70857827  -1.11337471  -4.14465870 
H    1.21408441  -2.69492468  -3.97708647 
H    1.97025686   1.98541363  -2.93937595 
H   -0.31198731   1.28311053  -3.53334688 
H    3.87428244   0.48916008  -2.93096485 
H    3.45828168  -1.90938677  -3.36566099 
*
