! EnGrad PBEh-3c
%output 
xyzfile=True 
end 
%scf 
maxiter 250 
end
%output
Print[P_Hirshfeld] = 1
end
% maxcore
4000
*xyz 0 1
Pd   1.71001569   1.14904874  -0.20394797 
O   -0.11188150   2.17288158  -0.53892624 
O    0.00637348   0.08152376   0.01091599 
O    3.42885626   2.15469441  -0.48344742 
O    3.41343923   0.47680803   0.81977601 
C   -0.72285789   1.08242631  -0.23822637 
C   -2.20599365   0.98656696  -0.18611367 
H   -2.64988076   1.86261088   0.27750764 
H   -2.49993396   0.10106972   0.37154560 
H   -2.61782991   0.90457003  -1.19232845 
C    4.06614118   1.42020344   0.32476665 
C    5.51539845   1.66801242   0.56228548 
H    5.80793529   1.38844142   1.56254791 
H    5.73974561   2.71114266   0.39754817 
H    6.11064989   1.07870462  -0.13384666 
C    1.77787645   0.99517558  -3.15673115 
C    0.50122148   0.54458731  -3.50685995 
C    2.83710941   0.06570999  -3.13352072 
C    0.25312912  -0.79307717  -3.87857292 
C    1.33471279  -1.67228063  -3.82975333 
C    2.63549843  -1.29047669  -3.45330116 
H   -0.74673933  -1.13016514  -4.19806072 
H    1.19706007  -2.72043637  -4.04146087 
H    1.96882753   2.05329881  -2.88117467 
H   -0.29468647   1.26708665  -3.51748227 
H    3.84619890   0.44474155  -2.89509049 
H    3.49050576  -1.99173497  -3.40273033 
*
