! EnGrad PBEh-3c
%output 
xyzfile=True 
end 
%scf 
maxiter 250 
end
%output
Print[P_Hirshfeld] = 1
end
% maxcore
4000
*xyz 0 1
Pd   1.75042254   1.15023646  -0.26609431 
O   -0.14100954   2.20598087  -0.58686131 
O    0.06654437   0.15984037   0.02636912 
O    3.48837184   2.13738413  -0.57251200 
O    3.40587004   0.62225187   0.96107098 
C   -0.69257134   1.14979884  -0.24614383 
C   -2.18109278   0.99358121  -0.15994863 
H   -2.61471193   1.86653829   0.33089446 
H   -2.45340851   0.09192434   0.38705458 
H   -2.60793314   0.93600367  -1.16399797 
C    4.07514792   1.48999350   0.34890092 
C    5.52174483   1.77494626   0.63600092 
H    5.76704687   1.58761888   1.68406600 
H    5.75261412   2.81429308   0.38151635 
H    6.14879622   1.12992122   0.00919857 
C    1.76842052   0.85574329  -3.04874664 
C    0.50685199   0.49830722  -3.51326365 
C    2.80500099  -0.05234336  -3.07540427 
C    0.28157156  -0.77980495  -3.99691958 
C    1.32368675  -1.72075523  -3.98083447 
C    2.58284355  -1.34255999  -3.53889897 
H   -0.70527596  -1.07787034  -4.37534838 
H    1.12824189  -2.74838600  -4.31586489 
H    1.95675721   1.87596662  -2.71984832 
H   -0.28931298   1.23546642  -3.46219969 
H    3.76564374   0.24807692  -2.73379737 
H    3.38075210  -2.08852872  -3.55330596 
*
