! EnGrad PBEh-3c
%output 
xyzfile=True 
end 
%scf 
maxiter 250 
end
%output
Print[P_Hirshfeld] = 1
end
% maxcore
4000
*xyz 0 1
Pd   1.73795650   1.15336505  -0.24925634 
O   -0.13211193   2.18759918  -0.57553110 
O    0.05108276   0.13742292   0.02739522 
O    3.47434542   2.14718347  -0.54981780 
O    3.40789499   0.58277581   0.92642332 
C   -0.69605309   1.13781655  -0.24753270 
C   -2.18717119   0.99125487  -0.16686551 
H   -2.62107829   1.86669357   0.31838851 
H   -2.46374596   0.09510925   0.38338903 
H   -2.61110225   0.92944538  -1.17156249 
C    4.07219907   1.47572839   0.34314866 
C    5.51982717   1.74845448   0.61860608 
H    5.77634127   1.54047394   1.65715159 
H    5.74811163   2.79122537   0.38514061 
H    6.14114848   1.11536699  -0.02523486 
C    1.77384661   0.89306294  -3.07608443 
C    0.50541040   0.50980850  -3.51164763 
C    2.81227420  -0.02043364  -3.08804899 
C    0.26946840  -0.78054371  -3.96924430 
C    1.32680650  -1.71319115  -3.94754539 
C    2.59602613  -1.32651615  -3.51859112 
H   -0.72895045  -1.09800163  -4.33860629 
H    1.14429089  -2.74558101  -4.25040903 
H    1.96861895   1.91962419  -2.75372808 
H   -0.29172100   1.24606653  -3.47379648 
H    3.78038574   0.30142014  -2.77173794 
H    3.41683783  -2.07277641  -3.51962875 
*
