! EnGrad PBEh-3c
%output 
xyzfile=True 
end 
%scf 
maxiter 250 
end
%output
Print[P_Hirshfeld] = 1
end
% maxcore
4000
*xyz 0 1
Pd   1.64477481   1.04127743  -0.22747056 
O   -0.20406056   2.14635981  -0.33411088 
O   -0.07898908  -0.00747048  -0.08076243 
O    3.30704044   2.12593649  -0.28294749 
O    3.43837693   0.16142689   0.56958053 
C   -0.80795983   1.06633374  -0.20007088 
C   -2.29553388   0.94172219  -0.23748882 
H   -2.75173406   1.85512348   0.13941135 
H   -2.63558590   0.08551549   0.33975571 
H   -2.62004860   0.80834283  -1.26980374 
C    4.03217460   1.22585864   0.24313408 
C    5.51215433   1.40311029   0.35656288 
H    5.87352161   0.88610527   1.23218434 
H    5.77152552   2.46385388   0.42911357 
H    6.00893196   1.00894654  -0.52151557 
C    1.82230183   1.27034948  -3.41024073 
C    0.58847808   0.62969690  -3.53081401 
C    2.94774950   0.31753646  -3.28205068 
C    0.39058496  -0.74966361  -3.52025034 
C    1.45507163  -1.60942513  -3.33987031 
C    2.73576902  -1.08395227  -3.17607046 
H   -0.61002760  -1.13704846  -3.66506264 
H    1.30996932  -2.67178521  -3.42292652 
H    1.68165112   2.68654951  -3.32541101 
H   -0.26601628   1.26771156  -3.67413621 
H    3.97776634   0.65006745  -3.34537270 
H    3.57059770  -1.76832165  -3.01293556 
*
