! EnGrad PBEh-3c
%output 
xyzfile=True 
end 
%scf 
maxiter 250 
end
%output
Print[P_Hirshfeld] = 1
end
% maxcore
4000
*xyz 0 1
Pd   1.61540495   1.09877174  -0.21184579 
O   -0.15582385   2.13761813  -0.36297499 
O   -0.07585166   0.03191846  -0.09401310 
O    3.31603532   2.12015861  -0.33752542 
O    3.45604335   0.20057245   0.61067761 
C   -0.77354985   1.03296641  -0.20073500 
C   -2.28568923   0.95282124  -0.22444198 
H   -2.74632040   1.85508657   0.16224862 
H   -2.62075888   0.08540261   0.34522539 
H   -2.62372309   0.82149624  -1.25932291 
C    4.02487879   1.25015760   0.27171869 
C    5.51280447   1.45358302   0.39812773 
H    5.88060299   0.95775692   1.29414782 
H    5.76173336   2.50115972   0.42202443 
H    6.03334743   1.00948594  -0.47054476 
C    1.80585758   1.34792010  -3.35365306 
C    0.59503869   0.64634727  -3.51920761 
C    2.89393728   0.34720942  -3.25903440 
C    0.39250597  -0.74920043  -3.57719048 
C    1.44172407  -1.62496438  -3.40636553 
C    2.71079724  -1.07042715  -3.23614128 
H   -0.61204762  -1.13114969  -3.73919604 
H    1.28584464  -2.69721077  -3.52287196 
H    1.72044784   2.38370680  -3.27801727 
H   -0.26732661   1.25877696  -3.65352272 
H    3.97366024   0.59948732  -3.28796050 
H    3.53677242  -1.80592816  -3.06098785 
*
