! EnGrad PBEh-3c
%output 
xyzfile=True 
end 
%scf 
maxiter 250 
end
%output
Print[P_Hirshfeld] = 1
end
% maxcore
4000
*xyz 0 1
Pd   1.62656146   1.10895187  -0.18430850 
O   -0.13120013   2.14280496  -0.39358863 
O   -0.04275940   0.02074892  -0.08909266 
O    3.33463079   2.13465737  -0.37756266 
O    3.44499312   0.24245809   0.65847710 
C   -0.77653432   1.05682904  -0.22058449 
C   -2.26742446   0.95920940  -0.21503036 
H   -2.73714814   1.85702078   0.18725891 
H   -2.60328275   0.08884718   0.34992246 
H   -2.62309606   0.83700243  -1.24218795 
C    4.02975552   1.28128057   0.26355509 
C    5.51052007   1.48956268   0.43477871 
H    5.88461448   1.03740774   1.35569482 
H    5.75642357   2.55232715   0.41667363 
H    6.04484390   1.01874370  -0.40153091 
C    1.80836656   1.19664654  -3.30370380 
C    0.57793600   0.63952424  -3.51450096 
C    2.88043244   0.34525707  -3.23559789 
C    0.38582139  -0.72925755  -3.63229346 
C    1.43121476  -1.62632751  -3.48978195 
C    2.68518471  -1.06004727  -3.28675863 
H   -0.60977290  -1.11604748  -3.81890864 
H    1.26685320  -2.70712414  -3.61975842 
H    1.77451411   2.21515250  -3.21824064 
H   -0.28728004   1.26348700  -3.63093637 
H    3.94157892   0.56505590  -3.21742694 
H    3.48830275  -1.80190161  -3.12436312 
*
