! EnGrad PBEh-3c
%output 
xyzfile=True 
end 
%scf 
maxiter 250 
end
%output
Print[P_Hirshfeld] = 1
end
% maxcore
4000
*xyz 0 1
Pd   1.66625474   1.09851719  -0.15158865 
O   -0.13350271   2.13746597  -0.43362566 
O   -0.02747895   0.03442393  -0.07343107 
O    3.36319291   2.15503169  -0.41472736 
O    3.41986683   0.31505716   0.70970488 
C   -0.74082111   1.08083964  -0.24377965 
C   -2.24680159   0.96917421  -0.20420295 
H   -2.71948790   1.85837157   0.21758081 
H   -2.57610623   0.09494134   0.35541769 
H   -2.62140613   0.85760548  -1.22110600 
C    4.04081767   1.31392629   0.25244559 
C    5.50770989   1.54306118   0.47892680 
H    5.87963108   1.14243577   1.42818952 
H    5.74962551   2.60934223   0.41099193 
H    6.05733873   1.03351015  -0.31163436 
C    1.79463816   1.04815179  -3.24767178 
C    0.52144364   0.59204719  -3.51685041 
C    2.90508025   0.23358254  -3.20713369 
C    0.35194204  -0.74003932  -3.70599284 
C    1.41400514  -1.61774293  -3.60251926 
C    2.65754148  -1.09671268  -3.34202211 
H   -0.61587268  -1.09696390  -3.92433698 
H    1.25038067  -2.69454588  -3.73867901 
H    1.85231491   2.09890047  -3.13092290 
H   -0.30940205   1.27960850  -3.59903161 
H    3.91192789   0.54776696  -3.11879854 
H    3.43833252  -1.78697458  -3.21059571 
*
