! EnGrad PBEh-3c
%output 
xyzfile=True 
end 
%scf 
maxiter 250 
end
%output
Print[P_Hirshfeld] = 1
end
% maxcore
4000
*xyz 0 1
C   -1.62222381   0.19300741  -0.41772817 
C   -1.92522598  -0.82273994  -1.31355534 
C   -1.48166496  -2.11078396  -1.05973579 
C   -0.64394091  -2.37309567   0.01313617 
C   -0.92263117  -0.13265638   0.73042357 
C   -0.34800958  -1.37157253   0.92335420 
H   -2.06927943   1.14844610  -0.66585343 
H   -2.58420678  -0.64004596  -2.14625557 
H   -1.80970301  -2.91999336  -1.69943349 
H    0.30556297  -1.64217831   1.74474358 
H   -0.30227390  -3.37911531   0.18923244 
Pd   1.42620198   1.15102560  -0.05753544 
O    3.02958616   1.15324326  -1.40074911 
O    2.63946145  -0.51130930  -0.09446787 
O    0.36766345   2.87027003   0.07790640 
C    0.05837586   2.99585070   1.26678721 
O    0.50563759   2.16336254   2.12786376 
H   -1.39551641   1.05830054   2.70612063 
C    3.28238045  -0.02307296  -1.05043286 
H    4.13657711  -0.57825949  -1.46657093 
H   -0.64676616   3.77130699   1.59275986 
*
