! EnGrad PBEh-3c
%output 
xyzfile=True 
end 
%scf 
maxiter 250 
end
%output
Print[P_Hirshfeld] = 1
end
% maxcore
4000
*xyz 0 1
C   -1.58122706   0.21008246  -0.39273368 
C   -2.04619659  -0.83650680  -1.20317419 
C   -1.68228145  -2.15956700  -0.94985385 
C   -0.77738785  -2.38131057   0.08190709 
C   -0.78075289   0.01638553   0.78049899 
C   -0.33643544  -1.33001507   0.89088253 
H   -1.86253989   1.20480309  -0.69335507 
H   -2.69719987  -0.64713438  -2.05534398 
H   -2.08194006  -2.99818517  -1.55098071 
H    0.37633028  -1.57075334   1.65443919 
H   -0.43278151  -3.39626613   0.25360903 
Pd   1.29803084   1.00646036  -0.00155437 
O    3.19206226   1.32211629  -1.25333317 
O    2.55783191  -0.50885870  -0.23554130 
O    0.38534764   2.71012569   0.13302479 
C   -0.00297634   2.91720750   1.37535046 
O    0.27385747   2.12814586   2.27335689 
H   -0.76054140   0.79199315   1.73063088 
C    3.36113313   0.12014827  -0.99709840 
H    4.24637966  -0.41825937  -1.35839494 
H   -0.66301701   3.79623347   1.49856986 
*
