! EnGrad PBEh-3c
%output 
xyzfile=True 
end 
%scf 
maxiter 250 
end
%output
Print[P_Hirshfeld] = 1
end
% maxcore
4000
*xyz 0 1
C   -1.57326683   0.21264537  -0.39799701 
C   -2.05342253  -0.83577906  -1.18909832 
C   -1.69723234  -2.15553028  -0.93580781 
C   -0.78938601  -2.37903697   0.08992337 
C   -0.75223295   0.01721375   0.75579187 
C   -0.33127706  -1.33302990   0.89164436 
H   -1.85041479   1.21210360  -0.68949241 
H   -2.69941096  -0.64160945  -2.04062243 
H   -2.08524371  -2.98549417  -1.53460505 
H    0.38532122  -1.56554859   1.65620549 
H   -0.44070765  -3.38872231   0.26351429 
Pd   1.28776434   0.98385491  -0.02059535 
O    3.18531486   1.33220577  -1.22234719 
O    2.55026818  -0.52537155  -0.25411437 
O    0.37204718   2.69635553   0.16448681 
C   -0.02234779   2.88444499   1.40592417 
O    0.18373971   2.13319781   2.28364351 
H   -0.63899361   0.78583039   1.59487070 
C    3.36249713   0.12554571  -0.98924242 
H    4.24599876  -0.40823936  -1.34774761 
H   -0.65405077   3.80737479   1.49371085 
*
