! EnGrad PBEh-3c
%output 
xyzfile=True 
end 
%scf 
maxiter 250 
end
%output
Print[P_Hirshfeld] = 1
end
% maxcore
4000
*xyz 0 1
C   -1.56209285   0.22466496  -0.40952546 
C   -2.07084890  -0.82392201  -1.16041376 
C   -1.72753799  -2.13452255  -0.88710218 
C   -0.81064655  -2.37157395   0.12037990 
C   -0.70626122  -0.04351562   0.63995220 
C   -0.31934845  -1.33956397   0.90214877 
H   -1.82108947   1.23647237  -0.67902588 
H   -2.71233245  -0.62023597  -2.00045379 
H   -2.10898928  -2.95348974  -1.48470375 
H    0.40860906  -1.55674193   1.66854708 
H   -0.46130310  -3.37536040   0.29355121 
Pd   1.27739339   0.95520649  -0.06701387 
O    3.16141083   1.35329630  -1.13649351 
O    2.52702265  -0.56697661  -0.32034397 
O    0.33801099   2.65776103   0.21665301 
C   -0.07408442   2.87510404   1.40843133 
O    0.01081064   2.13384081   2.39300645 
H   -0.38142269   0.71912305   1.26943803 
C    3.37621516   0.14046183  -0.95262690 
H    4.26251121  -0.37685400  -1.32946115 
H   -0.62270945   3.82591235   1.48211928 
*
