! EnGrad PBEh-3c
%output 
xyzfile=True 
end 
%scf 
maxiter 250 
end
%output
Print[P_Hirshfeld] = 1
end
% maxcore
4000
*xyz 0 1
C   -1.62400122   0.19487402  -0.39118521 
C   -1.98394981  -0.84142100  -1.27206892 
C   -1.57352289  -2.15080734  -1.02556077 
C   -0.70738706  -2.38571117   0.03859930 
C   -0.87283988  -0.02986530   0.79858644 
C   -0.35390875  -1.34197440   0.91058654 
H   -1.96548863   1.18836313  -0.67601515 
H   -2.64254534  -0.64472503  -2.11371916 
H   -1.95235082  -2.97528320  -1.63714686 
H    0.33786366  -1.60481744   1.70662492 
H   -0.35998594  -3.40216996   0.21451371 
Pd   1.35389043   1.10474403   0.04781512 
O    3.11834104   1.22794964  -1.38029019 
O    2.57647627  -0.48709515  -0.16528125 
O    0.39157906   2.81124397   0.05598316 
C    0.04706935   2.97486082   1.25216740 
O    0.48249865   2.14071831   2.22325186 
H   -1.17915246   0.88872550   2.29158804 
C    3.35042780   0.06877061  -0.99711539 
H    4.19792760  -0.50599846  -1.43733551 
H   -0.64706661   3.76199708   1.54524140 
*
