! EnGrad PBEh-3c
%output 
xyzfile=True 
end 
%scf 
maxiter 250 
end
%output
Print[P_Hirshfeld] = 1
end
% maxcore
4000
*xyz 0 1
C   -1.61425450   0.19716215  -0.37683095 
C   -2.00544628  -0.83568322  -1.25142004 
C   -1.60973192  -2.15865765  -1.00387533 
C   -0.72579409  -2.38321802   0.05592172 
C   -0.85885774  -0.01213425   0.80918931 
C   -0.35742738  -1.32798262   0.90658453 
H   -1.92998815   1.19778597  -0.68168474 
H   -2.66199404  -0.64728434  -2.09739852 
H   -2.00399774  -2.99392941  -1.61316484 
H    0.34894372  -1.59287383   1.68996504 
H   -0.38372043  -3.40449748   0.22498908 
Pd   1.33807800   1.08081161   0.04622923 
O    3.15004317   1.25993557  -1.35096133 
O    2.57085163  -0.48306238  -0.18594893 
O    0.38358343   2.78333619   0.11479417 
C    0.04959044   2.96897569   1.22817612 
O    0.45505306   2.14138209   2.24283959 
H   -1.07643585   0.82384974   2.10910842 
C    3.35148954   0.08887775  -0.99449340 
H    4.21894993  -0.47478920  -1.41339065 
H   -0.64841781   3.76034083   1.52782390 
*
