27
	Energy:      37.8496149
Pd        -2.81101        6.24111       -0.22074
Cl        -3.98577        4.30442       -0.69024
Cl        -1.19283        4.99513        0.86946
Cl        -4.43336        7.48762       -1.30390
N         -1.78891        7.92606        0.18701
C         -2.14669        8.50366        1.36599
C         -1.54312        9.67451        1.80547
C         -0.55867       10.26327        1.02703
C         -0.81370        8.47593       -0.62177
C         -0.18242        9.67829       -0.18722
H         -0.09047       11.17706        1.37432
H         -2.91539        8.04096        1.97038
H         -1.83828       10.12236        2.74565
C         -0.40284        7.90548       -1.87019
C          0.81211       10.28792       -0.95646
C          1.20694        9.73285       -2.16356
C          0.61646        8.55545       -2.62954
H          1.28877       11.20201       -0.62135
H          1.98111       10.22909       -2.73759
C         -0.95295        6.71988       -2.40519
C          1.04296        8.02267       -3.85736
C         -0.51722        6.20355       -3.62778
C          0.47704        6.85187       -4.35180
H          1.81668        8.51358       -4.43634
H          0.80999        6.44618       -5.29850
H         -1.71572        6.16397       -1.91620
H         -0.95547        5.29260       -4.01563
