! EnGrad PBEh-3c
%output 
xyzfile=True 
end 
%scf 
maxiter 250 
end
%output
Print[P_Hirshfeld] = 1
end
% maxcore
4000
*xyz 0 1
Pd   0.40197718   0.13247162  -0.22834964 
O    1.94412994   1.37156087   0.63131407 
C    1.79317415   2.56337386   0.37186843 
O    0.67919078   2.99746843  -0.13367784 
C    2.84299532   3.59740301   0.63595527 
H    2.46349597   4.51972286   1.07447702 
H    3.30383723   3.86988607  -0.31589898 
H    3.61043183   3.18302259   1.28310948 
N   -1.32188202  -0.83726561  -0.93274526 
C   -1.07529797  -2.13798031  -1.58613701 
H   -0.36743035  -2.07378278  -2.40656375 
H   -1.95777223  -2.56949989  -2.08261741 
H   -0.66010543  -2.84328266  -0.87353388 
C   -1.91598733   0.00227815  -1.98712416 
H   -2.04268219   1.01907016  -1.63016427 
H   -2.89775128  -0.36943324  -2.30930217 
H   -1.30561323   0.03791195  -2.88402325 
C   -1.65046465  -1.18840414   1.45424021 
C   -1.95107280  -2.16335385   2.40385482 
C   -1.64154341  -2.01355491   3.74666287 
C   -0.99495071  -0.86869218   4.16928065 
C   -0.88758861   0.19113422   3.28133134 
C   -1.20608181   0.03981242   1.94133426 
H   -0.77778401  -0.72048377   5.21927874 
H   -0.63194227   1.14802704   3.72771924 
H   -2.60410624  -2.99958123   2.16460218 
H   -1.93484689  -2.76280045   4.47146118 
H   -1.25130124   3.84014699   1.00086438 
C   -2.34385704  -1.08340605   0.12124112 
H   -3.10124845  -0.28791453   0.14907771 
H   -2.97395328  -1.97327964  -0.01995293 
O    1.54382119   0.47788583  -1.90394349 
C    2.25247412  -0.45409227  -2.42234799 
O    2.14246606  -1.59891894  -2.01134290 
C    3.38787702  -0.07884996  -3.35537920 
H    3.78602424  -0.93993743  -3.89332023 
H    4.21859509   0.31148994  -2.76172327 
H    3.12476718   0.66184780  -4.10951147 
*
