! EnGrad PBEh-3c
%output 
xyzfile=True 
end 
%scf 
maxiter 250 
end
%output
Print[P_Hirshfeld] = 1
end
% maxcore
4000
*xyz 0 1
Pd   0.37485978   0.28618166  -0.14296457 
O    1.86812703   1.36533531   0.59055515 
C    1.69555346   2.57860922   0.36563380 
O    0.60985408   2.98241336  -0.09909176 
C    2.81032802   3.55500101   0.64065313 
H    2.43170262   4.48929998   1.06911700 
H    3.28707886   3.85652454  -0.30530239 
H    3.61591958   3.18937910   1.29037361 
N   -1.33265490  -0.83310732  -0.94177074 
C   -1.07307862  -2.13251942  -1.63713235 
H   -0.34035575  -2.00723773  -2.44557302 
H   -2.01412840  -2.54065840  -2.06287253 
H   -0.67140094  -2.85334915  -0.92221024 
C   -1.94391721   0.04309312  -1.97676401 
H   -2.06130905   1.05486079  -1.57860655 
H   -2.93727218  -0.32991614  -2.29658667 
H   -1.29367117   0.09698177  -2.85450683 
C   -1.74047078  -1.12270537   1.48996743 
C   -1.96229112  -2.15736351   2.39741004 
C   -1.57507456  -2.02277698   3.72770624 
C   -1.06555631  -0.82132951   4.17443428 
C   -0.87642960   0.24282582   3.28602977 
C   -1.04290113   0.02223463   1.91117696 
H   -0.79199400  -0.69892106   5.20827160 
H   -0.62839016   1.21900224   3.70090185 
H   -2.48613607  -3.06037267   2.08800298 
H   -1.81551642  -2.80720235   4.43740573 
H   -1.19290678   3.70073075   0.99390557 
C   -2.33542463  -1.09660091   0.10859524 
H   -3.06117550  -0.28769541   0.13241373 
H   -2.90475585  -2.02150121  -0.06940643 
O    1.52722758   0.43760502  -1.90722891 
C    2.25383401  -0.50910992  -2.38894340 
O    2.11092117  -1.67612405  -2.08353909 
C    3.39837891  -0.11078333  -3.30415231 
H    3.79397732  -0.98527136  -3.82873207 
H    4.22590063   0.30117120  -2.72006833 
H    3.14737067   0.64389410  -4.05621348 
*
