! EnGrad PBEh-3c
%output 
xyzfile=True 
end 
%scf 
maxiter 250 
end
%output
Print[P_Hirshfeld] = 1
end
% maxcore
4000
*xyz 0 1
Pd   0.23366124   0.34012685  -0.09635634 
O    1.80089356   1.34883393   0.58062460 
C    1.58462975   2.62714992   0.38849195 
O    0.43408727   3.01394519  -0.04225628 
C    2.76524376   3.54619701   0.64220699 
H    2.35340756   4.44142539   1.06499911 
H    3.22363285   3.81830741  -0.28977962 
H    3.54917028   3.17534410   1.28372679 
N   -1.34728087  -0.79949626  -0.99417102 
C   -1.08639138  -2.05931459  -1.71250955 
H   -0.39581286  -1.89060329  -2.51358438 
H   -2.05862741  -2.43079099  -2.07030647 
H   -0.68852742  -2.83684523  -1.07679083 
C   -1.98154847   0.14338208  -1.92201893 
H   -2.10990615   1.11142661  -1.46341550 
H   -2.95846450  -0.21462191  -2.24910732 
H   -1.32510331   0.24683337  -2.77216045 
C   -1.70883655  -1.07137520   1.49467841 
C   -1.90253901  -2.14818436   2.36700728 
C   -1.50186474  -2.01079076   3.69036000 
C   -1.10325110  -0.74092599   4.14553456 
C   -0.87930282   0.32124759   3.24011120 
C   -0.94125219   0.03929969   1.85891834 
H   -0.85267957  -0.63445695   5.21392813 
H   -0.67445746   1.30602421   3.65684778 
H   -2.20056084  -3.12816426   1.97128696 
H   -1.51156135  -2.88360932   4.35935836 
H   -1.09206710   3.37706067   0.98931019 
C   -2.30582243  -1.11031699   0.14003400 
H   -3.06858346  -0.31829360   0.08303789 
H   -2.77475912  -2.07306428  -0.11716271 
O    1.53058635   0.36577811  -1.83957959 
C    2.22152465  -0.62664105  -2.34758113 
O    1.99923235  -1.83107497  -2.26013236 
C    3.45971077  -0.18653259  -3.20862003 
H    3.84891027  -1.07866157  -3.68408920 
H    4.24342992   0.24535808  -2.58288799 
H    3.22972685   0.56752836  -3.94581998 
*
