! EnGrad PBEh-3c
%output 
xyzfile=True 
end 
%scf 
maxiter 250 
end
%output
Print[P_Hirshfeld] = 1
end
% maxcore
4000
*xyz 0 1
Pd   0.27890467   0.33045262  -0.10876034 
O    1.82321083   1.34655002   0.58300782 
C    1.62205626   2.61993877   0.37865939 
O    0.49094342   3.00126366  -0.06190064 
C    2.78447589   3.54722809   0.64203026 
H    2.38082965   4.45497802   1.06556778 
H    3.24452230   3.82995696  -0.29174010 
H    3.57226256   3.18200747   1.28461984 
N   -1.33902719  -0.81041465  -0.97802409 
C   -1.07800598  -2.08498471  -1.68586586 
H   -0.37432300  -1.93097727  -2.48760873 
H   -2.04527207  -2.47119161  -2.06571182 
H   -0.68350553  -2.84371720  -1.02267593 
C   -1.96871254   0.10870895  -1.93992829 
H   -2.09274668   1.08995824  -1.50523551 
H   -2.95247780  -0.25523966  -2.26663280 
H   -1.31266738   0.19340630  -2.80026985 
C   -1.72339566  -1.08548809   1.49237214 
C   -1.92911352  -2.15041646   2.37825705 
C   -1.52819090  -2.01657325   3.70248775 
C   -1.09338276  -0.76718301   4.15590536 
C   -0.87586691   0.29717830   3.25493602 
C   -0.96549815   0.02861780   1.87499468 
H   -0.83096519  -0.65719232   5.21322270 
H   -0.65495639   1.27744338   3.67102340 
H   -2.30086914  -3.10752675   2.00993308 
H   -1.61788626  -2.85942586   4.38698214 
H   -1.12426110   3.49060095   0.98988922 
C   -2.31645425  -1.10702538   0.13340396 
H   -3.06427429  -0.30444252   0.09877598 
H   -2.81970481  -2.05724823  -0.10389011 
O    1.52596071   0.39170267  -1.86304544 
C    2.23249837  -0.58633232  -2.36186438 
O    2.04087152  -1.78058304  -2.19500692 
C    3.43880087  -0.15822605  -3.24592574 
H    3.82681681  -1.04485045  -3.73344001 
H    4.23777336   0.26664378  -2.63263369 
H    3.19891962   0.59370367  -3.98128098 
*
