! EnGrad PBEh-3c
%output 
xyzfile=True 
end 
%scf 
maxiter 250 
end
%output
Print[P_Hirshfeld] = 1
end
% maxcore
4000
*xyz 0 1
Pd   0.34626270   0.32371490  -0.12663640 
O    1.84074558   1.36506670   0.58096190 
C    1.67831588   2.59470940   0.36271396 
O    0.57543614   2.98009494  -0.08289885 
C    2.79380693   3.53743324   0.64112472 
H    2.41813661   4.47703482   1.06771393 
H    3.27528738   3.84744904  -0.29790448 
H    3.60823594   3.19080928   1.28898898 
N   -1.32332614  -0.81793196  -0.93163591 
C   -1.07350295  -2.11786833  -1.65035237 
H   -0.33841228  -1.98379146  -2.46084323 
H   -2.03350729  -2.53037394  -2.06248109 
H   -0.67577340  -2.85473640  -0.94866985 
C   -1.95064582   0.05781055  -1.96347725 
H   -2.06966782   1.06433582  -1.55835939 
H   -2.95291018  -0.30954888  -2.29374324 
H   -1.29391581   0.12434280  -2.84180059 
C   -1.74846329  -1.10743902   1.48830658 
C   -1.96517502  -2.15315831   2.39451383 
C   -1.55743749  -2.02100558   3.72182416 
C   -1.08283609  -0.80582446   4.17579066 
C   -0.87245211   0.26226950   3.28311602 
C   -0.99461724   0.01930026   1.89449288 
H   -0.80245791  -0.68784272   5.20618508 
H   -0.62817404   1.24577165   3.69130253 
H   -2.43375523  -3.08213391   2.05895213 
H   -1.75918947  -2.82654569   4.42298646 
H   -1.16918109   3.63952378   0.99147080 
C   -2.33191617  -1.09951163   0.10641600 
H   -3.05497124  -0.28773897   0.12099657 
H   -2.87956198  -2.03933803  -0.08458441 
O    1.52562978   0.40977255  -1.89280386 
C    2.24982133  -0.52830617  -2.39536283 
O    2.09294591  -1.70074043  -2.10713922 
C    3.40497090  -0.12444462  -3.28346812 
H    3.79811748  -1.00183934  -3.79933457 
H    4.23168737   0.29562608  -2.69919574 
H    3.15827590   0.62975592  -4.02924806 
*
