! EnGrad PBEh-3c
%output 
xyzfile=True 
end 
%scf 
maxiter 250 
end
%output
Print[P_Hirshfeld] = 1
end
% maxcore
4000
*xyz 0 1
Pd   0.31084308   0.32362336  -0.11751662 
O    1.83896511   1.34493775   0.58469019 
C    1.64847652   2.61484825   0.37171836 
O    0.53107951   2.99231148  -0.07576806 
C    2.79805231   3.54795595   0.64190549 
H    2.40018755   4.46454514   1.06596922 
H    3.25926865   3.83818065  -0.29312404 
H    3.58856394   3.18671129   1.28525027 
N   -1.33320072  -0.81812220  -0.96662560 
C   -1.07208653  -2.10310584  -1.66705746 
H   -0.35915280  -1.95947821  -2.46927191 
H   -2.03584422  -2.49971136  -2.06246836 
H   -0.67996047  -2.84856828  -0.98447495 
C   -1.95965136   0.08423238  -1.95257093 
H   -2.08063341   1.07480322  -1.53475723 
H   -2.94825165  -0.28391269  -2.27900444 
H   -1.30388857   0.15569088  -2.82011294 
C   -1.73367328  -1.09545072   1.49074408 
C   -1.94787308  -2.15199215   2.38619853 
C   -1.54677516  -2.02065524   3.71104901 
C   -1.08641647  -0.78571845   4.16322635 
C   -0.87344142   0.28018723   3.26540122 
C   -0.98261395   0.02107721   1.88634335 
H   -0.81563650  -0.67324175   5.21272473 
H   -0.64119014   1.25726750   3.68103030 
H   -2.37167911  -3.09295825   2.03721428 
H   -1.69294350  -2.84235419   4.40648241 
H   -1.14698760   3.57075169   0.99029798 
C   -2.32395949  -1.10470176   0.12872366 
H   -3.06123235  -0.29466471   0.10988587 
H   -2.85143303  -2.04608332  -0.09452067 
O    1.52269537   0.41000342  -1.87961054 
C    2.24024497  -0.55787745  -2.37194726 
O    2.07026558  -1.74493961  -2.14903335 
C    3.42404008  -0.13824380  -3.27226072 
H    3.81122053  -1.02098239  -3.76827790 
H    4.23378026   0.28166986  -2.66775034 
H    3.17717208   0.61218144  -4.00631372 
*
