! EnGrad PBEh-3c
%output 
xyzfile=True 
end 
%scf 
maxiter 250 
end
%output
Print[P_Hirshfeld] = 1
end
% maxcore
4000
*xyz 0 1
Pd   0.35555159   0.30039776  -0.13451541 
O    1.85947524   1.35193001   0.58912578 
C    1.68251410   2.59823593   0.36604704 
O    0.58527290   2.98442169  -0.09257079 
C    2.80778131   3.55063411   0.64101654 
H    2.42255640   4.48146212   1.06806540 
H    3.27866982   3.85070661  -0.30052928 
H    3.60802918   3.18954982   1.28830193 
N   -1.33102521  -0.82809827  -0.94914228 
C   -1.07099660  -2.12416266  -1.64537040 
H   -0.34480094  -1.99344253  -2.45177182 
H   -2.02185732  -2.53018488  -2.06233881 
H   -0.67426151  -2.85236525  -0.94000070 
C   -1.94850154   0.05528746  -1.96882509 
H   -2.06668096   1.05967668  -1.56670678 
H   -2.94152340  -0.31701534  -2.29219536 
H   -1.29580640   0.11340917  -2.84485791 
C   -1.74024701  -1.11269880   1.48868990 
C   -1.96065037  -2.15658347   2.39492400 
C   -1.56699746  -2.02296714   3.72297353 
C   -1.07288424  -0.81111791   4.17202697 
C   -0.87463903   0.25548205   3.27998997 
C   -1.02176925   0.02026758   1.90346693 
H   -0.79848730  -0.69171309   5.20979861 
H   -0.63092622   1.23061370   3.69488929 
H   -2.45343517  -3.07041820   2.07276950 
H   -1.78060319  -2.81776870   4.42848842 
H   -1.17886495   3.66360066   0.99255867 
C   -2.33238183  -1.09978729   0.11615884 
H   -3.06048612  -0.28845357   0.12552751 
H   -2.88938986  -2.02943706  -0.07779084 
O    1.52471821   0.42974280  -1.89884709 
C    2.25027839  -0.52337568  -2.38510584 
O    2.09993093  -1.69659500  -2.10095643 
C    3.40573641  -0.11789464  -3.29698913 
H    3.79775868  -0.99491255  -3.81083051 
H    4.22847126   0.29632865  -2.70563838 
H    3.15538994   0.63426544  -4.04040845 
*
