! EnGrad PBEh-3c
%output 
xyzfile=True 
end 
%scf 
maxiter 250 
end
%output
Print[P_Hirshfeld] = 1
end
% maxcore
4000
*xyz 0 1
Pd   0.26965330   0.34447610  -0.10210218 
O    1.81754241   1.34774871   0.57929349 
C    1.61641137   2.62039187   0.37781839 
O    0.48178276   2.99997342  -0.05877967 
C    2.78557060   3.54601018   0.64269391 
H    2.37902995   4.44923433   1.06417914 
H    3.24140616   3.82683855  -0.28744412 
H    3.57076384   3.18321628   1.28329131 
N   -1.33589620  -0.80802114  -0.97950552 
C   -1.07564787  -2.08267528  -1.68817526 
H   -0.37243800  -1.92679307  -2.48769316 
H   -2.04895092  -2.47028862  -2.06323388 
H   -0.68497239  -2.84497213  -1.02687998 
C   -1.97014003   0.11085146  -1.93786929 
H   -2.09413030   1.09052946  -1.50318739 
H   -2.95510345  -0.25193258  -2.26640128 
H   -1.31195085   0.19686239  -2.79670225 
C   -1.72695095  -1.08130482   1.49413960 
C   -1.93379840  -2.14648924   2.37726364 
C   -1.52654178  -2.01746361   3.70000460 
C   -1.09880425  -0.76151479   4.15480355 
C   -0.87320783   0.30165234   3.25273339 
C   -0.94711987   0.02376254   1.87005723 
H   -0.83234337  -0.65546388   5.21455111 
H   -0.65168564   1.28351705   3.66820035 
H   -2.29311426  -3.11463066   2.00314804 
H   -1.60858489  -2.86561750   4.38532789 
H   -1.11738575   3.48133966   0.98849895 
C   -2.31602174  -1.10826073   0.13660013 
H   -3.06188460  -0.30178559   0.09534837 
H   -2.81503818  -2.06191117  -0.10950740 
O    1.52248761   0.38859471  -1.86139763 
C    2.23053648  -0.59044897  -2.36039681 
O    2.04098063  -1.78874191  -2.19603298 
C    3.44087778  -0.15891202  -3.24514859 
H    3.82508210  -1.04677064  -3.72791236 
H    4.23882347   0.26714483  -2.63112334 
H    3.19842560   0.59167547  -3.97488933 
*
