! EnGrad PBEh-3c
%output 
xyzfile=True 
end 
%scf 
maxiter 250 
end
%output
Print[P_Hirshfeld] = 1
end
% maxcore
4000
*xyz 0 1
Pd   0.41076679   0.19178300  -0.18409099 
O    1.94126010   1.30471265   0.62621241 
C    1.71648431   2.62624835   0.36213372 
O    0.67356419   2.98613020  -0.12790605 
C    2.85820208   3.58688053   0.63947939 
H    2.45250545   4.51250815   1.07262414 
H    3.30290995   3.87020946  -0.31491742 
H    3.61771628   3.18843858   1.28608646 
N   -1.34784366  -0.86195553  -0.98408949 
C   -1.06121472  -2.15452526  -1.60770613 
H   -0.35966582  -2.05316268  -2.40872139 
H   -1.97266722  -2.55444797  -2.06693445 
H   -0.66489134  -2.84574889  -0.88087497 
C   -1.93073372   0.02515456  -1.99210073 
H   -2.04633615   1.02937038  -1.61923019 
H   -2.89982701  -0.36527870  -2.29893391 
H   -1.29757351   0.04684899  -2.87534970 
C   -1.70360158  -1.14422570   1.47535132 
C   -1.95743687  -2.17790152   2.40564548 
C   -1.61605551  -2.02421783   3.73775783 
C   -1.02507461  -0.85698186   4.17086442 
C   -0.88207273   0.21945067   3.28026877 
C   -1.15167225   0.02451066   1.94061807 
H   -0.77500511  -0.71736140   5.21815237 
H   -0.63391060   1.15669985   3.71715037 
H   -2.57722203  -3.01075149   2.14721006 
H   -1.91495221  -2.77049833   4.46334288 
H   -1.23469778   3.81157126   0.99777763 
C   -2.33901979  -1.09602853   0.13990508 
H   -3.08323096  -0.28647008   0.15069226 
H   -2.95278456  -1.98318705  -0.03954860 
O    1.52593346   0.50385570  -1.92442814 
C    2.26009661  -0.48315868  -2.37444537 
O    2.14214624  -1.63676774  -2.04138304 
C    3.39260286  -0.08128198  -3.35990760 
H    3.78714677  -0.95136766  -3.87981148 
H    4.21616740   0.30931547  -2.75322903 
H    3.13078219   0.66203759  -4.10050479 
*
