! EnGrad PBEh-3c
%output 
xyzfile=True 
end 
%scf 
maxiter 250 
end
%output
Print[P_Hirshfeld] = 1
end
% maxcore
4000
*xyz 0 1
Pd   0.40957156   0.24382752  -0.16092784 
O    1.89306870   1.40184695   0.59508128 
C    1.71665872   2.51343685   0.37431150 
O    0.65013506   2.98854528  -0.11692153 
C    2.82711087   3.58533544   0.64070258 
H    2.44877054   4.50093580   1.06953725 
H    3.30070790   3.86673142  -0.31425060 
H    3.62515947   3.18537682   1.29318613 
N   -1.34432979  -0.84998079  -0.94998999 
C   -1.07757595  -2.14898072  -1.62367894 
H   -0.34152264  -2.03331365  -2.43005204 
H   -1.99004167  -2.55100646  -2.06273857 
H   -0.66567513  -2.85221427  -0.89186699 
C   -1.93593421   0.02363047  -1.99516095 
H   -2.05229840   1.04672454  -1.59986419 
H   -2.91899786  -0.35205069  -2.29926955 
H   -1.29458702   0.06693588  -2.86748660 
C   -1.73107807  -1.14752948   1.49950469 
C   -1.95443026  -2.15334107   2.39653711 
C   -1.59566908  -2.02610018   3.73433697 
C   -1.04476557  -0.83302955   4.16803569 
C   -0.88273570   0.21259837   3.29039449 
C   -1.09820104   0.02795992   1.93157645 
H   -0.78033173  -0.71127038   5.21154724 
H   -0.62819927   1.19187941   3.71268322 
H   -2.54612756  -3.03832426   2.12000487 
H   -1.87798623  -2.78560182   4.45363561 
H   -1.22069889   3.76886933   0.99715856 
C   -2.34061113  -1.09119345   0.10513169 
H   -3.06785896  -0.28897144   0.14527836 
H   -2.93260423  -2.00128598  -0.05151139 
O    1.53143412   0.46657507  -1.92525102 
C    2.25465517  -0.49017720  -2.37814721 
O    2.13160036  -1.64364741  -2.05963028 
C    3.39244235  -0.09658735  -3.32302486 
H    3.79011536  -0.96766122  -3.86229635 
H    4.21838962   0.30665964  -2.74384833 
H    3.13481900   0.66140652  -4.08848518 
*
