! EnGrad PBEh-3c
%output 
xyzfile=True 
end 
%scf 
maxiter 250 
end
%output
Print[P_Hirshfeld] = 1
end
% maxcore
4000
*xyz 0 1
Pd   0.41221194   0.22749666  -0.16628064 
O    1.91308854   1.35305715   0.60763446 
C    1.71741367   2.56466990   0.37217045 
O    0.65232910   2.98934334  -0.12511783 
C    2.84136694   3.58601622   0.64015317 
H    2.44961833   4.50511037   1.07059480 
H    3.30175363   3.86839125  -0.31451758 
H    3.62302030   3.18689686   1.29075542 
N   -1.34886812  -0.85812823  -0.97021409 
C   -1.06950834  -2.15323059  -1.61911869 
H   -0.34852070  -2.03987067  -2.42110492 
H   -1.98373974  -2.55082713  -2.06282674 
H   -0.66574570  -2.84973683  -0.88756550 
C   -1.93523618   0.02624121  -1.99489627 
H   -2.05006857   1.04056648  -1.60709525 
H   -2.91064906  -0.35743768  -2.29794144 
H   -1.29513628   0.05900677  -2.86993013 
C   -1.72509467  -1.14255543   1.49188275 
C   -1.95538725  -2.16431094   2.40059698 
C   -1.60232835  -2.02733969   3.73461881 
C   -1.03890200  -0.84106744   4.16894910 
C   -0.88236952   0.21722033   3.28552338 
C   -1.11596130   0.02541273   1.93668312 
H   -0.77758585  -0.71372411   5.21443259 
H   -0.63093039   1.17780955   3.71384563 
H   -2.55752256  -3.02787059   2.13009772 
H   -1.89230757  -2.77958008   4.45705044 
H   -1.22573921   3.78500633   0.99733613 
C   -2.33964383  -1.09442006   0.12158007 
H   -3.07260366  -0.28790631   0.14797750 
H   -2.93927131  -1.99431836  -0.04816573 
O    1.52735250   0.48526571  -1.92746872 
C    2.25806339  -0.48541939  -2.37224683 
O    2.13590439  -1.64849660  -2.05372781 
C    3.39309974  -0.09043777  -3.33916826 
H    3.78909008  -0.96175453  -3.86881575 
H    4.21698992   0.30751663  -2.74722658 
H    3.13357122   0.66201053  -4.09323144 
*
