! EnGrad PBEh-3c
%output 
xyzfile=True 
end 
%scf 
maxiter 250 
end
%output
Print[P_Hirshfeld] = 1
end
% maxcore
4000
*xyz 0 1
Pd   0.40500280   0.24237683  -0.16097683 
O    1.90021418   1.36526181   0.60174213 
C    1.71330979   2.55885318   0.37062712 
O    0.64531369   2.98676179  -0.11801700 
C    2.83185382   3.57781410   0.64030332 
H    2.44608873   4.50198715   1.07037921 
H    3.29914410   3.86605506  -0.31296648 
H    3.62261993   3.18740379   1.29124938 
N   -1.34444816  -0.85136241  -0.95898864 
C   -1.07163963  -2.14857971  -1.62304587 
H   -0.34490114  -2.03268052  -2.42766343 
H   -1.99132386  -2.54981523  -2.06300686 
H   -0.66677792  -2.85108494  -0.89444222 
C   -1.93688287   0.02859241  -1.99128830 
H   -2.05244735   1.04425680  -1.60060941 
H   -2.91801096  -0.35159783  -2.29843778 
H   -1.29432786   0.06738961  -2.86718639 
C   -1.72966782  -1.13895840   1.49201288 
C   -1.95762757  -2.16217408   2.39997322 
C   -1.59536365  -2.02536958   3.73348296 
C   -1.04558894  -0.83733233   4.17110791 
C   -0.88097238   0.22206764   3.28720682 
C   -1.09827700   0.02510665   1.93033966 
H   -0.78073769  -0.71062966   5.21201053 
H   -0.62965159   1.18821706   3.71114343 
H   -2.54228627  -3.03573471   2.12028687 
H   -1.87588621  -2.78594327   4.45291103 
H   -1.21866143   3.76667539   0.99660872 
C   -2.33893186  -1.09411814   0.11501559 
H   -3.06919115  -0.28789154   0.14466798 
H   -2.93182778  -2.00102261  -0.05279007 
O    1.52824542   0.47161428  -1.92311124 
C    2.25734106  -0.48905635  -2.37831265 
O    2.13035775  -1.65271020  -2.05934866 
C    3.39303502  -0.09547120  -3.32900303 
H    3.78998502  -0.96718534  -3.86034843 
H    4.21915093   0.30650100  -2.74185884 
H    3.13613831   0.65868192  -4.08545180 
*
