! EnGrad PBEh-3c
%output 
xyzfile=True 
end 
%scf 
maxiter 250 
end
%output
Print[P_Hirshfeld] = 1
end
% maxcore
4000
*xyz 1 1
Sc   1.19520182  -0.78000393  -1.86028093 
C    0.28926429  -0.50123774   0.20941137 
N   -0.45928212  -1.34712121   0.93592510 
C   -0.70039084  -0.83319560   2.17651524 
C   -0.05228177   0.34985077   2.23978607 
N    0.53118663   0.54508290   1.02424589 
C    1.35562577   1.69661857   0.71950827 
H    1.24957967   2.52407471   1.41608169 
H    1.06213473   2.10024806  -0.24686117 
H    2.40800408   1.42356073   0.69412187 
C   -0.96475903  -2.64470974   0.52395224 
H   -0.71277487  -2.82655778  -0.51717580 
H   -2.04710666  -2.66622858   0.63205912 
H   -0.52738871  -3.43396738   1.13091792 
H   -1.28880793  -1.33711605   2.92434920 
H    0.01193239   1.03630982   3.06618732 
C   -0.02929765   1.62775511  -2.89820218 
H   -0.60110745   1.60649890  -3.83616378 
H    0.62412112   2.49960207  -3.02592662 
H   -0.73488614   1.87589753  -2.09752000 
H   -0.60894155  -0.91535273  -3.21093505 
*
