! EnGrad PBEh-3c
%output 
xyzfile=True 
end 
%scf 
maxiter 250 
end
%output
Print[P_Hirshfeld] = 1
end
% maxcore
4000
*xyz 1 1
Sc   1.20986571  -0.38320846  -1.92454942 
C    0.41254472  -0.62560233   0.25264384 
N   -0.45467445  -1.37343644   0.95249259 
C   -0.80423739  -0.75112359   2.11396888 
C   -0.14809851   0.42343299   2.14831155 
N    0.59879439   0.47638282   1.00991884 
C    1.42591580   1.59450578   0.60454392 
H    1.50598355   2.29159922   1.43570493 
H    0.99928558   2.13615426  -0.23532638 
H    2.43503746   1.26536786   0.36431057 
C   -0.97355848  -2.66558759   0.55207689 
H   -0.57202445  -2.94620752  -0.41520335 
H   -2.05712204  -2.62523096   0.47554739 
H   -0.69058480  -3.42041689   1.28190923 
H   -1.48010947  -1.18734702   2.81998149 
H   -0.13861626   1.20369421   2.88471300 
C   -0.19622245   1.49494301  -2.72600703 
H   -0.80559990   1.45986294  -3.64496536 
H    0.38405205   2.40537658  -2.82367252 
H   -0.90412217   1.61969251  -1.90513949 
H    0.26085514  -0.38424192  -3.21971267 
*
