! EnGrad PBEh-3c
%output 
xyzfile=True 
end 
%scf 
maxiter 250 
end
%output
Print[P_Hirshfeld] = 1
end
% maxcore
4000
*xyz 1 1
Sc   1.03319332  -0.69498443  -2.00425445 
C    0.34723632  -0.53469449   0.22388066 
N   -0.46285550  -1.34350891   0.93793639 
C   -0.72720137  -0.82205641   2.17376671 
C   -0.09730356   0.37064483   2.23226157 
N    0.55064005   0.53362959   1.03444495 
C    1.39035853   1.68432733   0.66426390 
H    1.31446969   2.44669113   1.44276033 
H    1.04465305   2.11024424  -0.26657272 
H    2.43170751   1.38174249   0.61268992 
C   -0.96328113  -2.64639960   0.53002116 
H   -0.67978985  -2.86547170  -0.49681881 
H   -2.04928927  -2.66182218   0.58313949 
H   -0.56853508  -3.42871417   1.18091560 
H   -1.34284881  -1.30454250   2.90038880 
H   -0.03245491   1.08715446   3.01857502 
C   -0.05169263   1.64203397  -2.84795688 
H   -0.65353351   1.56369225  -3.77321568 
H    0.55740806   2.53151235  -2.96676268 
H   -0.76989081   1.80156641  -2.05287538 
H   -0.27098992  -0.84930749  -3.12599099 
*
