! EnGrad PBEh-3c
%output 
xyzfile=True 
end 
%scf 
maxiter 250 
end
%output
Print[P_Hirshfeld] = 1
end
% maxcore
4000
*xyz 1 1
Sc   1.01346205  -0.66336985  -2.02484989 
C    0.35629050  -0.54159879   0.23437013 
N   -0.45912185  -1.34639366   0.93612124 
C   -0.73520537  -0.81301169   2.16617937 
C   -0.10157149   0.37608921   2.21986092 
N    0.56000704   0.52729935   1.02305104 
C    1.39165218   1.67350596   0.67078528 
H    1.33599616   2.42510134   1.44361377 
H    1.03822570   2.11567493  -0.27560510 
H    2.43824634   1.36890012   0.58478979 
C   -0.96388912  -2.64782779   0.53415451 
H   -0.66862705  -2.87644452  -0.48984243 
H   -2.05060688  -2.65987148   0.56940675 
H   -0.58142009  -3.42559777   1.19330314 
H   -1.36173370  -1.29762001   2.89690315 
H   -0.04640067   1.10476279   3.01000833 
C   -0.06796180   1.63103448  -2.84165527 
H   -0.66578310   1.55367259  -3.75330358 
H    0.54082882   2.54337223  -2.95011028 
H   -0.78380349   1.78271019  -2.03326606 
H   -0.18815092  -0.82802840  -3.11302300 
*
