! EnGrad PBEh-3c
%output 
xyzfile=True 
end 
%scf 
maxiter 250 
end
%output
Print[P_Hirshfeld] = 1
end
% maxcore
4000
*xyz 1 1
Sc   0.99290279  -0.61293225  -2.04746259 
C    0.37429106  -0.55691923   0.23680889 
N   -0.45630085  -1.35031681   0.93799662 
C   -0.75088669  -0.80279890   2.15900958 
C   -0.10936079   0.38884380   2.20639548 
N    0.56981063   0.51917586   1.01985208 
C    1.39944235   1.65872253   0.65567107 
H    1.36794572   2.39517099   1.45138328 
H    1.03172072   2.12016773  -0.27860126 
H    2.44446325   1.34982022   0.54288027 
C   -0.96432733  -2.64979605   0.53674384 
H   -0.65161241  -2.89343509  -0.47755761 
H   -2.05269266  -2.65646915   0.54827854 
H   -0.60108920  -3.42184192   1.21367462 
H   -1.38765391  -1.28340758   2.88718081 
H   -0.06790395   1.12824013   2.99115456 
C   -0.08456689   1.62321395  -2.82169434 
H   -0.69081404   1.53723129  -3.73010932 
H    0.50976537   2.55271972  -2.92365041 
H   -0.80408111   1.75194419  -2.00555120 
H   -0.06790391  -0.79402478  -3.10120889 
*
