! EnGrad PBEh-3c
%output 
xyzfile=True 
end 
%scf 
maxiter 250 
end
%output
Print[P_Hirshfeld] = 1
end
% maxcore
4000
*xyz 1 1
Sc   1.07990215  -0.51472731  -1.97812472 
C    0.38991711  -0.58458418   0.23434697 
N   -0.44760709  -1.35873008   0.94256133 
C   -0.77612371  -0.77877145   2.14288646 
C   -0.11654113   0.40747938   2.18536605 
N    0.58464855   0.50116820   1.00812876 
C    1.41006932   1.63567582   0.63555095 
H    1.41954493   2.35234767   1.45509401 
H    1.02446733   2.12465371  -0.26979359 
H    2.44332285   1.32019771   0.47348568 
C   -0.96801659  -2.65550124   0.54097601 
H   -0.62242110  -2.91838233  -0.45535956 
H   -2.05585468  -2.64880540   0.51739020 
H   -0.63305894  -3.41546426   1.24204675 
H   -1.42529125  -1.25731028   2.86844688 
H   -0.10106127   1.16040838   2.95769998 
C   -0.11664151   1.60210311  -2.78704092 
H   -0.73619005   1.51553427  -3.70620553 
H    0.45596918   2.54626265  -2.88307231 
H   -0.83789445   1.70597509  -1.95882837 
H    0.03200158  -0.73450137  -3.16420584 
*
