! EnGrad PBEh-3c
%output 
xyzfile=True 
end 
%scf 
maxiter 250 
end
%output
Print[P_Hirshfeld] = 1
end
% maxcore
4000
*xyz 1 1
Sc   1.19974022  -0.40583909  -1.90954540 
C    0.40913879  -0.62178845   0.24788033 
N   -0.44751551  -1.37108479   0.95182445 
C   -0.81082771  -0.75935387   2.11880731 
C   -0.13449961   0.43305666   2.15465469 
N    0.60131088   0.47896346   1.00429766 
C    1.42597749   1.60387040   0.60816344 
H    1.49359865   2.29391939   1.44575941 
H    1.00924330   2.13401345  -0.24721466 
H    2.43621216   1.27566445   0.37644339 
C   -0.97326810  -2.66431950   0.54902907 
H   -0.57990902  -2.94826416  -0.42219773 
H   -2.05869609  -2.63269449   0.47750559 
H   -0.68124551  -3.41289213   1.27951400 
H   -1.46922020  -1.20329642   2.82726274 
H   -0.13972671   1.19802412   2.89758078 
C   -0.18787332   1.55246076  -2.73962451 
H   -0.79787215   1.48063947  -3.66262906 
H    0.38291040   2.48382338  -2.82941778 
H   -0.88806654   1.63621732  -1.90316646 
H    0.21653395  -0.54376986  -3.22349416 
*
