! EnGrad PBEh-3c
%output 
xyzfile=True 
end 
%scf 
maxiter 250 
end
%output
Print[P_Hirshfeld] = 1
end
% maxcore
4000
*xyz 1 1
Sc   1.21923417  -0.34978734  -1.94042193 
C    0.41625567  -0.63033952   0.25684616 
N   -0.45861310  -1.37430478   0.94967218 
C   -0.80575132  -0.75060746   2.11356407 
C   -0.15853645   0.42375622   2.14500408 
N    0.59679730   0.47102967   1.01150740 
C    1.42588216   1.58440991   0.60194154 
H    1.52056957   2.28825210   1.42553831 
H    0.98722455   2.13810631  -0.22355167 
H    2.43514117   1.25303527   0.35006342 
C   -0.97432128  -2.66704505   0.55647116 
H   -0.56254674  -2.94420775  -0.40770276 
H   -2.05562695  -2.61713448   0.47278967 
H   -0.70115598  -3.42886293   1.28502627 
H   -1.49218617  -1.16862020   2.81133229 
H   -0.13871992   1.20914262   2.86958837 
C   -0.20281483   1.42394579  -2.70967475 
H   -0.81424731   1.43392603  -3.62351614 
H    0.38798793   2.31727559  -2.81649162 
H   -0.92270863   1.59972786  -1.90696265 
H    0.30722340  -0.20154059  -3.21948976 
*
