! EnGrad PBEh-3c
%output 
xyzfile=True 
end 
%scf 
maxiter 250 
end
%output
Print[P_Hirshfeld] = 1
end
% maxcore
4000
*xyz -1 1
C   -2.22542784  -0.03052537   0.68313977 
C   -1.87188212   0.97412696   1.57941193 
C   -3.57687236  -0.39364431   0.64305578 
C   -4.58678318   0.51806417   0.95838787 
C   -4.22377943   1.63350904   1.70426745 
C   -2.87702826   1.90480898   1.86265727 
H   -2.63298734  -1.62495871  -1.93811433 
H   -3.91302176  -1.41772310   0.52972837 
H   -2.64832153   2.93744486   2.11462037 
H   -5.63404889   0.28956925   0.79165626 
H   -5.00170347   2.31395571   2.02883147 
C   -0.47111369   1.44613804   1.83454324 
C    0.72686701   0.47315606   1.93074673 
H   -0.47027545   2.01597660   2.77773026 
H   -0.21823826   2.20260063   1.08177009 
C    1.76395218   0.64218219   0.84980121 
H    0.33961808  -0.54918735   1.91818648 
H    1.23672107   0.56078610   2.89936087 
C    1.58081474   0.07204984  -0.41375047 
C    2.61508499   0.25836462  -1.32909502 
C    3.66059280   1.15559913  -1.13482676 
C    2.95307065   1.31318015   1.13101223 
C    3.75088537   1.78524723   0.09556753 
H    2.68043434  -0.33693364  -2.23103324 
H    4.37704279   1.35483771  -1.92370858 
H    3.09394118   1.73325557   2.12179228 
H    4.44656729   2.60700625   0.21143275 
Pd   0.18277732  -1.26615165  -0.69965631 
Br  -1.50842385  -3.72660534  -0.63769078 
P    1.41298538  -2.98834666  -0.00382272 
H    1.08768112  -3.59476508   1.22751088 
C    0.34569594  -1.40353847  -3.84151259 
O    1.44821959  -1.77024243  -4.17363177 
O   -0.52251666  -2.17660928  -3.28975485 
O   -0.21170489  -0.25578279  -4.26577007 
H    2.78016728  -2.80789058   0.30982223 
H    1.63168459  -4.14917182  -0.77170815 
H    0.47931566   0.30021759  -4.63094254 
*
