! EnGrad PBEh-3c
%output 
xyzfile=True 
end 
%scf 
maxiter 250 
end
%output
Print[P_Hirshfeld] = 1
end
% maxcore
4000
*xyz -1 1
C   -2.22002218  -0.16511593   0.74553455 
C   -1.88806904   1.04441149   1.39412426 
C   -3.58677328  -0.49447768   0.75640155 
C   -4.58723311   0.38706328   1.20438725 
C   -4.22197758   1.62064086   1.73343023 
C   -2.86948263   1.91672147   1.85798957 
H   -1.90971471  -1.87461400  -1.23212137 
H   -3.92036264  -1.43387768   0.31737538 
H   -2.57028501   2.80080299   2.42101844 
H   -5.63952395   0.15061712   1.08612731 
H   -4.96223978   2.35169721   2.04007746 
C   -0.45500009   1.50584842   1.58337864 
C    0.64245128   0.46151209   1.85354447 
H   -0.47448244   2.19477169   2.43715288 
H   -0.13680736   2.12572578   0.73590107 
C    1.72614288   0.55258097   0.82546510 
H    0.22615649  -0.54422032   1.87796705 
H    1.07695672   0.63564059   2.83718312 
C    1.62560514  -0.10118288  -0.40635930 
C    2.62191018   0.13818579  -1.36214812 
C    3.62408006   1.08109208  -1.13549974 
C    2.80575554   1.40212980   1.06711068 
C    3.72316360   1.72761593   0.08735184 
H    2.61778400  -0.36969849  -2.32417220 
H    4.35652398   1.30256149  -1.89174245 
H    2.91266388   1.85736224   2.04744575 
H    4.54944996   2.40446625   0.30219268 
Pd   0.09113310  -1.35517147  -0.68223022 
Br  -1.80882593  -3.20794426  -0.90760136 
P    1.45662588  -2.94179344   0.04638245 
H    0.96422348  -3.53119678   1.21580325 
C    0.34809532  -1.33406057  -3.86791098 
O    1.48915101  -1.65167116  -4.16945187 
O   -0.47423291  -1.93175315  -3.11125298 
O   -0.14086060  -0.13037913  -4.33575004 
H    2.77395508  -2.73889375   0.45029052 
H    1.59050049  -4.10335807  -0.71291983 
H    0.62100323   0.24570818  -4.79011881 
*
