! EnGrad PBEh-3c
%output 
xyzfile=True 
end 
%scf 
maxiter 250 
end
%output
Print[P_Hirshfeld] = 1
end
% maxcore
4000
*xyz -1 1
C   -2.22385808  -0.07209776   0.72276597 
C   -1.86362835   0.99604672   1.50319885 
C   -3.60332776  -0.39578923   0.65134068 
C   -4.57691668   0.49487085   1.01637345 
C   -4.23053685   1.64178098   1.66993095 
C   -2.90728389   1.91349312   1.90392986 
H   -2.58447847  -1.62372567  -1.90477977 
H   -3.90690077  -1.42512224   0.50662488 
H   -2.63584558   2.92683133   2.14479633 
H   -5.63706417   0.27911036   0.81130378 
H   -4.99547180   2.32291864   2.03721850 
C   -0.43975916   1.47603028   1.83194233 
C    0.71819667   0.45386065   1.92782394 
H   -0.46878524   2.02986433   2.74080810 
H   -0.23011622   2.19055770   1.04963738 
C    1.76106403   0.62277730   0.86200454 
H    0.33671413  -0.54815873   1.91190600 
H    1.21992915   0.57257829   2.89067525 
C    1.61799483   0.05616018  -0.40950444 
C    2.62746413   0.23693451  -1.35615329 
C    3.64724763   1.16201809  -1.12366184 
C    2.92188167   1.36905441   1.12410274 
C    3.77289944   1.76611827   0.08785240 
H    2.67650365  -0.34219930  -2.23905721 
H    4.38032983   1.35320464  -1.92160747 
H    3.08982883   1.73141608   2.12252852 
H    4.45774559   2.59673396   0.22739392 
Pd   0.11871780  -1.28365997  -0.71540369 
Br  -1.51485301  -3.70027536  -0.65610738 
P    1.44235491  -3.00026829   0.00849508 
H    1.06974038  -3.58724881   1.22529093 
C    0.25194049  -1.49474457  -3.84783816 
O    1.51637646  -1.74400724  -4.17710422 
O   -0.50141588  -2.11985344  -3.27052611 
O   -0.20017046  -0.21093228  -4.26871393 
H    2.77665847  -2.80106733   0.32501075 
H    1.62364764  -4.14424872  -0.76422090 
H    0.49212424   0.30169714  -4.64783100 
*
