! EnGrad PBEh-3c
%output 
xyzfile=True 
end 
%scf 
maxiter 250 
end
%output
Print[P_Hirshfeld] = 1
end
% maxcore
4000
*xyz -1 1
C   -2.22872917  -0.09547338   0.74184896 
C   -1.86125569   1.01728038   1.47200335 
C   -3.60633600  -0.40429514   0.65704063 
C   -4.58485083   0.47752301   1.04295805 
C   -4.23338202   1.65584928   1.66132040 
C   -2.91208268   1.90915747   1.91640391 
H   -2.55382616  -1.62373070  -1.88006160 
H   -3.90462465  -1.42885380   0.49188962 
H   -2.62885065   2.92275135   2.16577548 
H   -5.63474862   0.27321625   0.82531143 
H   -4.99196337   2.32704079   2.04025534 
C   -0.43172767   1.48174365   1.81783322 
C    0.71550704   0.45046022   1.92585273 
H   -0.46815260   2.04308206   2.72614968 
H   -0.23330112   2.18666576   1.02815414 
C    1.76516781   0.61512418   0.86576036 
H    0.33181966  -0.55239677   1.90849369 
H    1.21021928   0.57870705   2.88674566 
C    1.63247707   0.04080952  -0.40907492 
C    2.63266136   0.23033350  -1.35957731 
C    3.64479431   1.16020737  -1.13113091 
C    2.90224483   1.39543899   1.11565153 
C    3.78051239   1.76088589   0.09484882 
H    2.67386137  -0.34922964  -2.25138408 
H    4.37945167   1.35202299  -1.91724022 
H    3.08716910   1.73312443   2.12505568 
H    4.46531682   2.58888437   0.23610661 
Pd   0.08892089  -1.29376808  -0.72140084 
Br  -1.52061651  -3.68242066  -0.66859266 
P    1.45186432  -3.00105180   0.01343721 
H    1.05898733  -3.58342721   1.22505159 
C    0.29924495  -1.48566233  -3.90024808 
O    1.51286812  -1.72675623  -4.16923245 
O   -0.54256509  -2.13482994  -3.22440992 
O   -0.20417089  -0.20024888  -4.26497281 
H    2.77918586  -2.79641005   0.33533611 
H    1.61939866  -4.14343841  -0.76104589 
H    0.50775812   0.30261537  -4.66030738 
*
