! EnGrad PBEh-3c
%output 
xyzfile=True 
end 
%scf 
maxiter 250 
end
%output
Print[P_Hirshfeld] = 1
end
% maxcore
4000
*xyz -1 1
C   -2.23246182  -0.11193509   0.75569099 
C   -1.86457485   1.03677974   1.45559503 
C   -3.60242420  -0.41592479   0.66450747 
C   -4.59566327   0.46505069   1.06243480 
C   -4.23608749   1.66608561   1.65987094 
C   -2.90366721   1.90317467   1.91589121 
H   -2.52109457  -1.62606329  -1.85430007 
H   -3.90370343  -1.43270396   0.47637699 
H   -2.62331099   2.91903961   2.18742909 
H   -5.63273130   0.26696957   0.83923347 
H   -4.99051586   2.33187354   2.04158564 
C   -0.43358854   1.47950306   1.79728626 
C    0.71446955   0.45226072   1.92267558 
H   -0.46809933   2.05751718   2.71749848 
H   -0.23125135   2.18658691   1.00725450 
C    1.77111208   0.61028581   0.86373602 
H    0.32522961  -0.55903059   1.90592537 
H    1.20223667   0.58350648   2.88542939 
C    1.63617285   0.02202714  -0.40723767 
C    2.63580368   0.22673319  -1.35752036 
C    3.64682252   1.15695862  -1.14008310 
C    2.88644377   1.41349295   1.10857345 
C    3.78125706   1.75898737   0.10249385 
H    2.67070849  -0.35638835  -2.26538719 
H    4.37779140   1.35109659  -1.91311582 
H    3.08368607   1.73710275   2.12718010 
H    4.47375140   2.58048390   0.24373387 
Pd   0.06954387  -1.30342456  -0.72380769 
Br  -1.52851281  -3.66322773  -0.68078726 
P    1.45232896  -2.99581791   0.01529386 
H    1.04979060  -3.58062389   1.22554638 
C    0.32280948  -1.48040758  -3.91633403 
O    1.49324875  -1.71326079  -4.16348102 
O   -0.54841634  -2.12845841  -3.21060575 
O   -0.20197801  -0.20266876  -4.26332634 
H    2.78608509  -2.79177233   0.34553952 
H    1.61610233  -4.14453116  -0.75944127 
H    0.52019841   0.30190848  -4.67064375 
*
