! EnGrad PBEh-3c
%output 
xyzfile=True 
end 
%scf 
maxiter 250 
end
%output
Print[P_Hirshfeld] = 1
end
% maxcore
4000
*xyz -1 1
C   -2.23373124  -0.13720672   0.78048941 
C   -1.87236752   1.06432688   1.42731376 
C   -3.59607264  -0.43610952   0.68149746 
C   -4.60431217   0.44861070   1.09774609 
C   -4.23789874   1.67373759   1.65525444 
C   -2.88690599   1.90048763   1.90640551 
H   -2.44757868  -1.63832106  -1.80270573 
H   -3.90108520  -1.44116066   0.43926859 
H   -2.61233798   2.90900161   2.23217172 
H   -5.63336948   0.25261833   0.86414332 
H   -4.98959309   2.34504968   2.04163585 
C   -0.44046444   1.48006315   1.76347036 
C    0.71142747   0.45201737   1.91507663 
H   -0.46952809   2.07960155   2.70026275 
H   -0.22116293   2.19027873   0.97109362 
C    1.77706678   0.59935043   0.85691303 
H    0.31321548  -0.57000397   1.90289365 
H    1.18816688   0.59221767   2.88590308 
C    1.63752046  -0.01577290  -0.40078154 
C    2.63840266   0.21519870  -1.35912204 
C    3.64826261   1.15238258  -1.14552879 
C    2.86034982   1.44631511   1.09973274 
C    3.77860846   1.75613954   0.10800523 
H    2.66109651  -0.36600844  -2.28889130 
H    4.37563054   1.35026197  -1.90927013 
H    3.07456414   1.74704176   2.12876324 
H    4.49157653   2.56227824   0.25917371 
Pd   0.03482023  -1.32271633  -0.72317601 
Br  -1.54855625  -3.61967796  -0.70462493 
P    1.45146830  -2.98254153   0.01612929 
H    1.03444213  -3.57542346   1.22526512 
C    0.33249907  -1.45116811  -3.92731554 
O    1.47999580  -1.69755396  -4.16107397 
O   -0.55542675  -2.12014362  -3.19003210 
O   -0.18926065  -0.20899076  -4.26509143 
H    2.80108737  -2.78237725   0.36274419 
H    1.60913690  -4.14603094  -0.75806707 
H    0.53622747   0.29583355  -4.68484854 
*
