! EnGrad PBEh-3c
%output 
xyzfile=True 
end 
%scf 
maxiter 250 
end
%output
Print[P_Hirshfeld] = 1
end
% maxcore
4000
*xyz -1 1
C   -2.23164832  -0.15096173   0.79727594 
C   -1.87990017   1.07278256   1.41489614 
C   -3.58675791  -0.45959061   0.70799644 
C   -4.60600949   0.43725028   1.12522894 
C   -4.23418387   1.67093773   1.66528019 
C   -2.87079891   1.90928324   1.87968107 
H   -2.35230329  -1.65952014  -1.73512861 
H   -3.90020821  -1.45098514   0.39663536 
H   -2.60120986   2.89363295   2.28450784 
H   -5.63803595   0.23406092   0.89513284 
H   -4.98844078   2.35954501   2.03902743 
C   -0.45598406   1.48463934   1.72408791 
C    0.70521988   0.45159824   1.90315465 
H   -0.47143185   2.10109452   2.67237266 
H   -0.20228376   2.19584271   0.92959597 
C    1.77742426   0.59030590   0.84542246 
H    0.29942383  -0.57842444   1.90039980 
H    1.17154790   0.60133709   2.88702754 
C    1.63105393  -0.05774285  -0.39761215 
C    2.63510543   0.19921789  -1.35796057 
C    3.64878831   1.14081490  -1.14512373 
C    2.84064776   1.46530699   1.09234037 
C    3.76705661   1.76154434   0.11071777 
H    2.64977438  -0.37243312  -2.31081470 
H    4.37579134   1.34986167  -1.90857714 
H    3.05889096   1.76371295   2.12626708 
H    4.51236064   2.53739141   0.27538569 
Pd   0.01305935  -1.34414797  -0.71448173 
Br  -1.57946102  -3.56280182  -0.73567890 
P    1.44479348  -2.96307166   0.01463122 
H    1.01853121  -3.56892921   1.22388281 
C    0.33211576  -1.39898063  -3.90709815 
O    1.46655848  -1.69062526  -4.16506265 
O   -0.55086510  -2.10676158  -3.18544942 
O   -0.17221661  -0.21896553  -4.27579530 
H    2.81576927  -2.77221878   0.38159106 
H    1.60214489  -4.14616042  -0.75537916 
H    0.54956732   0.28387467  -4.69776229 
*
