! EnGrad PBEh-3c
%output 
xyzfile=True 
end 
%scf 
maxiter 250 
end
%output
Print[P_Hirshfeld] = 1
end
% maxcore
4000
*xyz -1 1
C   -2.22700920  -0.15751405   0.80381141 
C   -1.87946988   1.06473351   1.40661949 
C   -3.58751562  -0.47305918   0.72845371 
C   -4.59843697   0.42950186   1.14192012 
C   -4.23057265   1.66376078   1.67526499 
C   -2.87356079   1.92565947   1.86455413 
H   -2.27681298  -1.68047054  -1.68087302 
H   -3.89930385  -1.45607525   0.36849628 
H   -2.59319215   2.87950782   2.31997620 
H   -5.64237364   0.21995070   0.91958475 
H   -4.98473631   2.36756697   2.03639034 
C   -0.45879839   1.49686835   1.70241691 
C    0.69659424   0.44781796   1.89483031 
H   -0.47289268   2.11247385   2.64107111 
H   -0.18912167   2.19631910   0.90024252 
C    1.77011749   0.58269089   0.83949332 
H    0.29118615  -0.57850703   1.89842412 
H    1.15735262   0.60814542   2.88437622 
C    1.63035603  -0.08025908  -0.39755438 
C    2.63112510   0.18267957  -1.36248753 
C    3.64470897   1.13122943  -1.13733364 
C    2.83038510   1.47169858   1.08932751 
C    3.75938110   1.76567222   0.10559745 
H    2.64206576  -0.37273974  -2.31916103 
H    4.37704238   1.34885373  -1.90944742 
H    3.04383026   1.77724573   2.12067137 
H    4.52637256   2.51780395   0.28650845 
Pd   0.00198139  -1.35826268  -0.70607504 
Br  -1.60710706  -3.51690080  -0.76125603 
P    1.44594748  -2.95366409   0.01542345 
H    1.00748966  -3.56264399   1.22093993 
C    0.31998143  -1.38835461  -3.87770934 
O    1.46783165  -1.68694261  -4.17030015 
O   -0.53840505  -2.08330342  -3.18823952 
O   -0.16565583  -0.20633377  -4.28954532 
H    2.81850407  -2.76557714   0.39369224 
H    1.59705012  -4.14229655  -0.75082662 
H    0.55785854   0.27406856  -4.70701971 
*
