! EnGrad PBEh-3c
%output 
xyzfile=True 
end 
%scf 
maxiter 250 
end
%output
Print[P_Hirshfeld] = 1
end
% maxcore
4000
*xyz -1 1
C   -2.22030124  -0.15634077   0.79823182 
C   -1.87878013   1.04782499   1.41052857 
C   -3.59235829  -0.47986979   0.74419214 
C   -4.58631779   0.42446093   1.14681538 
C   -4.22705925   1.65243587   1.68930181 
C   -2.88115677   1.94174432   1.85068331 
H   -2.20957832  -1.70758561  -1.62889059 
H   -3.89897722  -1.45619331   0.35106816 
H   -2.58784955   2.86643739   2.34395233 
H   -5.64462845   0.20857369   0.94137417 
H   -4.97939938   2.37006211   2.03253352 
C   -0.45509766   1.51005181   1.69080407 
C    0.68604412   0.44517056   1.88889698 
H   -0.47447181   2.11721194   2.60708769 
H   -0.17723712   2.19371731   0.87901708 
C    1.75763071   0.57763713   0.83589284 
H    0.28548207  -0.57252830   1.89711427 
H    1.14461974   0.61266756   2.87870505 
C    1.62948994  -0.08822947  -0.39955042 
C    2.62571528   0.16724163  -1.36795644 
C    3.63941455   1.12163054  -1.12726978 
C    2.82865735   1.46203607   1.08880100 
C    3.75008333   1.76929064   0.09581584 
H    2.63627901  -0.36821618  -2.31762539 
H    4.37678551   1.34625000  -1.90989211 
H    3.02672592   1.79072223   2.11145430 
H    4.53570929   2.50051918   0.29303604 
Pd   0.00528444  -1.36565977  -0.69535936 
Br  -1.63760568  -3.47274130  -0.78558342 
P    1.45043972  -2.94985523   0.01722337 
H    1.00075169  -3.55637706   1.21665625 
C    0.30457824  -1.39631933  -3.84085083 
O    1.47084156  -1.68672453  -4.17470681 
O   -0.51632983  -2.05214441  -3.19935013 
O   -0.16721342  -0.18563952  -4.30352325 
H    2.81227755  -2.76142831   0.40057940 
H    1.59370698  -4.13510226  -0.74499630 
H    0.56428263   0.26566684  -4.71453941 
*
