! EnGrad PBEh-3c
%output 
xyzfile=True 
end 
%scf 
maxiter 250 
end
%output
Print[P_Hirshfeld] = 1
end
% maxcore
4000
*xyz -1 1
C   -2.21285199  -0.17066044   0.78174862 
C   -1.88575620   1.04062599   1.40839196 
C   -3.59272485  -0.50697568   0.77547415 
C   -4.58117861   0.39823070   1.18526103 
C   -4.22456895   1.62995084   1.72384160 
C   -2.87760941   1.95431580   1.82556811 
H   -1.98351795  -1.81425918  -1.40867572 
H   -3.90326730  -1.44952644   0.30524240 
H   -2.57019713   2.82371831   2.42073058 
H   -5.64101384   0.17028747   1.02799396 
H   -4.96407305   2.37138042   2.02839254 
C   -0.44872864   1.52189490   1.62488530 
C    0.65633440   0.45303783   1.86910952 
H   -0.47765005   2.15816588   2.49917696 
H   -0.14391874   2.17034128   0.78958700 
C    1.73289584   0.56030772   0.82581238 
H    0.25454911  -0.55906208   1.88758502 
H    1.09814553   0.62913362   2.85388839 
C    1.62830649  -0.11443666  -0.40315799 
C    2.62049877   0.13475824  -1.36831289 
C    3.62920443   1.09024825  -1.12588639 
C    2.80866081   1.43341567   1.07521396 
C    3.72460190   1.76371795   0.08339523 
H    2.61961575  -0.36601125  -2.32702481 
H    4.36587168   1.32775341  -1.89813118 
H    2.96337703   1.83581691   2.07946270 
H    4.56149772   2.43934824   0.31084199 
Pd   0.02288002  -1.38203999  -0.67330157 
Br  -1.74745028  -3.29934817  -0.87669167 
P    1.46283403  -2.93974569   0.03027454 
H    0.97362562  -3.53580486   1.20770703 
C    0.32201095  -1.35845553  -3.82876768 
O    1.47387721  -1.67153259  -4.17242329 
O   -0.49480815  -1.98262792  -3.16392180 
O   -0.16306041  -0.14361391  -4.32871337 
H    2.79130414  -2.74570332   0.43155920 
H    1.58469250  -4.11274921  -0.72385315 
H    0.60091361   0.24416890  -4.75463163 
*
