! EnGrad PBEh-3c
%output 
xyzfile=True 
end 
%scf 
maxiter 250 
end
%output
Print[P_Hirshfeld] = 1
end
% maxcore
4000
*xyz 0 1
C   -1.58910439   0.19696225  -0.39703071 
C   -2.01082633  -0.84251578  -1.22480246 
C   -1.56076304  -2.13580856  -1.01473304 
C   -0.74266850  -2.38950187   0.06760567 
C   -0.68602379  -0.02153417   0.66839771 
C   -0.33864912  -1.35864731   0.90938658 
H   -1.93475174   1.21440735  -0.58983584 
H   -2.59710509  -0.62596713  -2.09641349 
H   -1.82133896  -2.93620600  -1.69510223 
H    0.33249493  -1.55158205   1.74385558 
H   -0.34125113  -3.37049543   0.23004205 
Pd   1.23934975   0.94702750   0.00158339 
O    3.02642782   1.24339295  -1.28757221 
O    2.50382403  -0.57053575  -0.18399206 
O    0.34946041   2.69310929   0.23606993 
C   -0.09925883   2.88998243   1.36668323 
O   -0.13500232   2.00692954   2.32383218 
H   -0.37436928   1.17382320   1.78702193 
C    3.24413147   0.05198872  -1.00015932 
H    4.09818294  -0.49853867  -1.39567212 
H   -0.56651489   3.86170880   1.52391822 
*
