! EnGrad PBEh-3c
%output 
xyzfile=True 
end 
%scf 
maxiter 250 
end
%output
Print[P_Hirshfeld] = 1
end
% maxcore
4000
*xyz 0 1
C   -1.53153149   0.19845134  -0.44333506 
C   -2.03245628  -0.84091456  -1.21948062 
C   -1.58427189  -2.13900781  -0.99063086 
C   -0.76446729  -2.41032103   0.09981518 
C   -0.52676433  -0.03569642   0.51213269 
C   -0.28050190  -1.36205415   0.86654625 
H   -1.87621633   1.20302969  -0.65068960 
H   -2.66462105  -0.62469353  -2.07718411 
H   -1.85309942  -2.93612002  -1.68058127 
H    0.38518350  -1.57272018   1.68826581 
H   -0.38738263  -3.41261785   0.26573424 
Pd   1.20952996   0.93991774  -0.02591232 
O    3.02020341   1.23576349  -1.21642085 
O    2.48498871  -0.63040018  -0.23783465 
O    0.31155740   2.71558333   0.24265378 
C   -0.13477966   2.93798951   1.36984686 
O   -0.19648066   2.08592729   2.33243233 
H   -0.40580498   1.16259426   1.94008703 
C    3.26850244   0.03747939  -0.97368845 
H    4.13587113  -0.48220912  -1.41608007 
H   -0.58435924   3.89864413   1.57890129 
*
