! EnGrad PBEh-3c
%output 
xyzfile=True 
end 
%scf 
maxiter 250 
end
%output
Print[P_Hirshfeld] = 1
end
% maxcore
4000
*xyz 0 1
C   -1.55449475   0.17316988  -0.53528754 
C   -2.06841953  -0.88607995  -1.27502836 
C   -1.68791674  -2.18121333  -0.97719455 
C   -0.79143972  -2.44321866   0.04462899 
C   -0.58367070  -0.03361161   0.49751205 
C   -0.27615294  -1.39353667   0.79885377 
H   -1.85961807   1.17851508  -0.82285640 
H   -2.76839496  -0.68416712  -2.07237495 
H   -2.13137709  -2.99428934  -1.51989440 
H    0.44452878  -1.62796107   1.58387362 
H   -0.47803144  -3.45621533   0.25092049 
Pd   1.33450417   1.05039457  -0.03115266 
O    3.24080769   1.29050502  -1.26441287 
O    2.60956483  -0.52340659  -0.25327966 
O    0.37717092   2.82333481   0.11787921 
C   -0.01777373   2.92110035   1.32307401 
O    0.27688950   2.10031190   2.25575866 
H   -1.11353294   1.28426167   2.70663554 
C    3.44416330   0.09867602  -0.98407291 
H    4.31315191  -0.44673893  -1.40982043 
H   -0.70966053   3.74492465   1.56097833 
*
