! EnGrad PBEh-3c
%output 
xyzfile=True 
end 
%scf 
maxiter 250 
end
%output
Print[P_Hirshfeld] = 1
end
% maxcore
4000
*xyz 0 1
C   -1.55254159   0.17942370  -0.49194360 
C   -2.05732607  -0.87626851  -1.26317825 
C   -1.65972902  -2.18083295  -0.99304608 
C   -0.78385299  -2.42811782   0.05581873 
C   -0.57707027  -0.02530596   0.50784801 
C   -0.28646489  -1.36434390   0.81561112 
H   -1.87120453   1.17905657  -0.77250813 
H   -2.73862007  -0.67718841  -2.09157715 
H   -2.07439318  -2.99698115  -1.56552381 
H    0.41317195  -1.60782463   1.60718488 
H   -0.44773575  -3.45181710   0.24132907 
Pd   1.28285871   1.01989702   0.00347270 
O    3.21096883   1.27921419  -1.28649129 
O    2.58557003  -0.52162886  -0.23697994 
O    0.37434122   2.80462212   0.15672625 
C   -0.03082007   2.92713290   1.29558758 
O    0.21429060   2.06281181   2.28520281 
H   -1.00244189   1.28112879   2.57338407 
C    3.40911579   0.09389930  -0.98190533 
H    4.27415155  -0.46292937  -1.41556041 
H   -0.68172237   3.75690980   1.54744344 
*
