! EnGrad PBEh-3c
%output 
xyzfile=True 
end 
%scf 
maxiter 250 
end
%output
Print[P_Hirshfeld] = 1
end
% maxcore
4000
*xyz 0 1
C   -1.55665790   0.18699517  -0.45427577 
C   -2.03730203  -0.85847648  -1.24605818 
C   -1.62319338  -2.16897591  -1.00859681 
C   -0.76490451  -2.40729095   0.06668346 
C   -0.60717900  -0.03526265   0.53723279 
C   -0.29947714  -1.34878553   0.84132974 
H   -1.89431943   1.18091540  -0.71431495 
H   -2.69468558  -0.66712583  -2.10587247 
H   -1.99993532  -2.99677685  -1.62147618 
H    0.37785618  -1.58809835   1.64123979 
H   -0.41174903  -3.43192340   0.23079952 
Pd   1.25722473   0.99971656   0.02183289 
O    3.16492324   1.26542495  -1.30750346 
O    2.56452929  -0.52949480  -0.20937563 
O    0.37693257   2.78173173   0.17123638 
C   -0.04919424   2.91518075   1.32222797 
O    0.12922882   2.03493538   2.29258787 
H   -0.85998899   1.27501494   2.40163285 
C    3.36176039   0.08185032  -0.99306305 
H    4.21960599  -0.48158925  -1.41520826 
H   -0.65334122   3.78003330   1.53597748 
*
