! EnGrad PBEh-3c
%output 
xyzfile=True 
end 
%scf 
maxiter 250 
end
%output
Print[P_Hirshfeld] = 1
end
% maxcore
4000
*xyz 0 1
C   -1.56700024   0.18825115  -0.44703765 
C   -2.03181475  -0.85469982  -1.24351578 
C   -1.61007156  -2.16228646  -1.01092778 
C   -0.75866735  -2.40428617   0.06658813 
C   -0.62221570  -0.02877473   0.56427287 
C   -0.30667159  -1.35484246   0.85270302 
H   -1.90243987   1.18500684  -0.69060191 
H   -2.67477105  -0.66158616  -2.10529103 
H   -1.96959971  -2.99131078  -1.63850066 
H    0.36704505  -1.57994294   1.65843108 
H   -0.39881774  -3.41884944   0.22836446 
Pd   1.25405210   0.99208791   0.02420131 
O    3.14478475   1.26112070  -1.31140260 
O    2.55577153  -0.53279120  -0.20070516 
O    0.37220250   2.77138693   0.18428165 
C   -0.04748051   2.89974592   1.33414995 
O    0.08985414   2.03072331   2.28616218 
H   -0.79115553   1.26399075   2.31237722 
C    3.34127482   0.07693285  -0.99703416 
H    4.19784511  -0.48634805  -1.41254824 
H   -0.64267464   3.79322792   1.53139285 
*
