! EnGrad PBEh-3c
%output 
xyzfile=True 
end 
%scf 
maxiter 250 
end
%output
Print[P_Hirshfeld] = 1
end
% maxcore
4000
*xyz 0 1
C   -1.57614000   0.18947019  -0.44300983 
C   -2.02874562  -0.85332722  -1.24298799 
C   -1.60213480  -2.15554640  -1.00899849 
C   -0.75459637  -2.40434518   0.06299380 
C   -0.64424511  -0.02375390   0.59791844 
C   -0.31394717  -1.36314858   0.86385796 
H   -1.90892231   1.19204337  -0.67189216 
H   -2.65754257  -0.65517541  -2.09891591 
H   -1.94410626  -2.98041403  -1.64614803 
H    0.36191006  -1.57438175   1.67620044 
H   -0.38987330  -3.40428093   0.22899890 
Pd   1.26071134   0.98706658   0.01614106 
O    3.12440562   1.25943006  -1.30592906 
O    2.54867632  -0.53844837  -0.19680539 
O    0.36574454   2.75621087   0.19635588 
C   -0.04977212   2.89523238   1.34356453 
O    0.05406932   2.02558941   2.28359856 
H   -0.71690230   1.24222005   2.20802522 
C    3.32125138   0.07255195  -1.00072487 
H    4.17917302  -0.48662987  -1.40601509 
H   -0.63061879   3.80499879   1.52740599 
*
