! EnGrad PBEh-3c
%output 
xyzfile=True 
end 
%scf 
maxiter 250 
end
%output
Print[P_Hirshfeld] = 1
end
% maxcore
4000
*xyz 0 1
Pd   0.42755163   0.10385759  -0.25397166 
O    1.98156088   1.37230284   0.62337319 
C    1.78794750   2.56149090   0.36358146 
O    0.66789936   2.91971442  -0.17441138 
C    2.78649042   3.64026422   0.63825172 
H    2.35158943   4.54368311   1.06541821 
H    3.25728782   3.94313721  -0.29989841 
H    3.56717587   3.27536796   1.29978332 
N   -1.35021603  -0.77308765  -0.95211075 
C   -1.20742829  -1.98860632  -1.77699149 
H   -0.61619977  -1.84043383  -2.67781991 
H   -2.14664987  -2.38010484  -2.20960977 
H   -0.72235226  -2.75633580  -1.19444025 
C   -1.98904958   0.18024021  -1.87198627 
H   -2.09416671   1.14240034  -1.38637893 
H   -2.98558683  -0.14377468  -2.20008844 
H   -1.40436154   0.34014402  -2.77155211 
C   -1.58816375  -1.12866104   1.44574467 
C   -1.58475382  -2.21084496   2.34309596 
C   -1.34522464  -2.04052951   3.70072849 
C   -0.97347645  -0.78909602   4.18008354 
C   -1.16644411   0.31611091   3.35558114 
C   -1.43279047   0.14958898   2.00226742 
H   -0.77817394  -0.65859220   5.23585931 
H   -1.09976777   1.28135394   3.84582666 
H   -2.13339554  -3.10964755   2.10293996 
H   -1.52074442  -2.84853282   4.39583019 
H   -1.69250282   3.61597274   1.19546235 
C   -2.31896958  -1.13412219   0.11896082 
H   -3.17555405  -0.44756120   0.18185289 
H   -2.82270512  -2.10552815   0.03441178 
O    1.65197617   0.27121542  -1.83406293 
C    2.32645443  -0.61490208  -2.45730098 
O    1.86015702  -1.71972213  -2.64796904 
C    3.60305990  -0.30852013  -3.21667740 
H    4.10892528  -1.15883373  -3.67639470 
H    4.33455199   0.08832380  -2.50987083 
H    3.43604398   0.41226822  -4.01750354 
*
