! EnGrad PBEh-3c
%output 
xyzfile=True 
end 
%scf 
maxiter 250 
end
%output
Print[P_Hirshfeld] = 1
end
% maxcore
4000
*xyz 0 1
Pd   0.48461489   0.32877386  -0.14482434 
O    1.90827216   1.26455917   0.61947773 
C    1.69899306   2.56005083   0.35280612 
O    0.53894269   2.95307501  -0.22074022 
C    2.76382489   3.59664230   0.63345137 
H    2.29986852   4.49696130   1.05081301 
H    3.22753095   3.92378198  -0.30622643 
H    3.57103174   3.28086818   1.30784632 
N   -1.42822706  -0.81365680  -1.05894510 
C   -1.19145399  -2.00329930  -1.90567058 
H   -0.56163231  -1.70314648  -2.73448908 
H   -2.20656377  -2.32358734  -2.18152266 
H   -0.69284240  -2.77737805  -1.30921197 
C   -2.05296636   0.27533321  -1.84640907 
H   -2.15118946   1.20392611  -1.27498311 
H   -3.03650332  -0.09483222  -2.15932841 
H   -1.41493234   0.43684493  -2.72164775 
C   -1.73188442  -1.02219116   1.51062344 
C   -1.61733105  -2.16799937   2.34546489 
C   -1.21532109  -2.01954455   3.65411056 
C   -1.10008537  -0.75903343   4.19576043 
C   -1.15233255   0.39220335   3.39248347 
C   -1.33208104   0.16251037   2.06577077 
H   -0.81722205  -0.61809328   5.22440135 
H   -1.20309253   1.37000180   3.81913032 
H   -1.82434280  -3.16934139   1.94466777 
H   -1.26817010  -2.87706940   4.32403364 
H   -1.74423513   3.37472905   1.25861187 
C   -2.26685874  -1.17304733   0.12753257 
H   -3.11442049  -0.49696263   0.13939397 
H   -2.64894035  -2.18493689  -0.05564932 
O    1.83171094   0.27371185  -1.71954386 
C    2.20761995  -0.67628624  -2.54205981 
O    1.67721787  -1.72362348  -2.83653903 
C    3.64063380  -0.35512694  -3.09691346 
H    3.96344896  -1.32121235  -3.50185426 
H    4.38446666   0.04396412  -2.40852811 
H    3.57281463   0.33525550  -3.94557631 
*
