! EnGrad PBEh-3c
%output 
xyzfile=True 
end 
%scf 
maxiter 250 
end
%output
Print[P_Hirshfeld] = 1
end
% maxcore
4000
*xyz 0 1
Pd   0.45380889   0.42503836  -0.12338996 
O    1.84640942   1.35831833   0.62697395 
C    1.66969876   2.49585280   0.35781565 
O    0.46746518   2.95764910  -0.23182364 
C    2.72853080   3.54801545   0.63111500 
H    2.26087414   4.44517877   1.03887922 
H    3.19716476   3.89177331  -0.30385637 
H    3.55627402   3.27298911   1.30452487 
N   -1.41159359  -0.78265133  -1.04778723 
C   -1.19764399  -1.97425100  -1.96095344 
H   -0.51898917  -1.62110794  -2.77747893 
H   -2.24631531  -2.31105524  -2.18286925 
H   -0.67366806  -2.79297857  -1.41059107 
C   -2.08691269   0.30728095  -1.81898033 
H   -2.19157033   1.23246572  -1.19851572 
H   -3.09053370  -0.03595336  -2.14727999 
H   -1.43178756   0.51977788  -2.67986933 
C   -1.80677309  -0.98587272   1.54134303 
C   -1.65046051  -2.13869831   2.32847460 
C   -1.17798458  -2.00688326   3.64190025 
C   -1.15312968  -0.71591241   4.21554015 
C   -1.14426200   0.43379714   3.43398144 
C   -1.25654853   0.20724450   2.07175710 
H   -0.86184276  -0.58902914   5.23338665 
H   -1.24518843   1.46958306   3.80608916 
H   -1.58529214  -3.18990497   1.81743030 
H   -1.05015817  -2.89944686   4.25841277 
H   -1.76522761   3.12150724   1.30955669 
C   -2.23938117  -1.18282983   0.07763564 
H   -3.08922284  -0.52472215   0.08805219 
H   -2.51724122  -2.24321275  -0.11103891 
O    1.95009213   0.25455647  -1.68109159 
C    2.15634108  -0.74012959  -2.54742681 
O    1.54796700  -1.69277740  -2.94922860 
C    3.62707656  -0.41778245  -3.03241285 
H    3.86438302  -1.42551775  -3.36655264 
H    4.39336264   0.01778824  -2.32962980 
H    3.67448952   0.29182212  -3.88617177 
*
