! EnGrad PBEh-3c
%output 
xyzfile=True 
end 
%scf 
maxiter 250 
end
%output
Print[P_Hirshfeld] = 1
end
% maxcore
4000
*xyz 0 1
Pd   0.47152376   0.36968185  -0.13571571 
O    1.88198334   1.30440250   0.62266328 
C    1.68654433   2.53276962   0.35493494 
O    0.50856803   2.95501879  -0.22545016 
C    2.74882652   3.57597812   0.63245852 
H    2.28329770   4.47495610   1.04574170 
H    3.21462671   3.91017976  -0.30521926 
H    3.56476039   3.27751994   1.30643486 
N   -1.42115860  -0.80048090  -1.05420352 
C   -1.19408446  -1.99095511  -1.92916325 
H   -0.54351094  -1.66828387  -2.75275779 
H   -2.22345635  -2.31826177  -2.18209490 
H   -0.68469419  -2.78400755  -1.35229343 
C   -2.06739199   0.28890953  -1.83475311 
H   -2.16834947   1.21605413  -1.24248798 
H   -3.05946375  -0.06981141  -2.15420839 
H   -1.42209503   0.47208762  -2.70389385 
C   -1.76370866  -1.00675750   1.52367786 
C   -1.63140955  -2.15554777   2.33824480 
C   -1.19945479  -2.01416408   3.64892174 
C   -1.12262676  -0.74070898   4.20416590 
C   -1.14890294   0.40987880   3.41011820 
C   -1.29998319   0.18152032   2.06831468 
H   -0.83618380  -0.60574236   5.22821969 
H   -1.22098135   1.41231926   3.81358843 
H   -1.72275725  -3.17807996   1.89059769 
H   -1.17552505  -2.88657879   4.29614778 
H   -1.75315597   3.26712141   1.28026108 
C   -2.25518204  -1.17720444   0.10632867 
H   -3.10371264  -0.50875915   0.11757607 
H   -2.59297427  -2.20970145  -0.07918735 
O    1.88201751   0.26557169  -1.70320341 
C    2.18582878  -0.70341673  -2.54434054 
O    1.62229219  -1.71051531  -2.88442692 
C    3.63487260  -0.38175266  -3.06950367 
H    3.92135049  -1.36553735  -3.44435729 
H    4.38824704   0.03284057  -2.37499995 
H    3.61602179   0.31679831  -3.92033211 
*
