! EnGrad PBEh-3c
%output 
xyzfile=True 
end 
%scf 
maxiter 250 
end
%output
Print[P_Hirshfeld] = 1
end
% maxcore
4000
*xyz 0 1
Pd   0.42055889   0.37066284  -0.16102597 
O    1.86484055   1.35994950   0.64037787 
C    1.67348804   2.55361225   0.35134987 
O    0.50236695   2.93560858  -0.21370790 
C    2.72541736   3.55669471   0.62835897 
H    2.26531735   4.44695686   1.04050491 
H    3.19687272   3.88842776  -0.30246217 
H    3.55068827   3.26548743   1.30226106 
N   -1.38099390  -0.76279566  -1.02909844 
C   -1.20147279  -1.95968927  -1.93357068 
H   -0.53787748  -1.64498287  -2.76764638 
H   -2.22413397  -2.31626182  -2.19453796 
H   -0.68037630  -2.78058457  -1.40487864 
C   -2.07521859   0.29009071  -1.82051958 
H   -2.18523703   1.21738906  -1.21469827 
H   -3.07918436  -0.03668571  -2.15176879 
H   -1.43866690   0.51278140  -2.68107065 
C   -1.75947594  -1.00448994   1.52148863 
C   -1.62906523  -2.15504986   2.32072443 
C   -1.21196151  -2.00187704   3.64885653 
C   -1.12209621  -0.72153206   4.21098933 
C   -1.15716414   0.42858644   3.42000779 
C   -1.28687399   0.20830753   2.05322374 
H   -0.86265643  -0.59495373   5.24337712 
H   -1.22325907   1.44903451   3.80857240 
H   -1.62154396  -3.15686246   1.84445149 
H   -1.07099466  -2.89264316   4.26373762 
H   -1.75369490   3.12391357   1.30431495 
C   -2.25239510  -1.17721795   0.08308781 
H   -3.10897529  -0.52387417   0.08459352 
H   -2.53685465  -2.22623779  -0.09321032 
O    1.90517349   0.22021432  -1.69202401 
C    2.21316215  -0.65421866  -2.50918526 
O    1.54810717  -1.70738807  -2.93176002 
C    3.61737241  -0.42657923  -3.05587550 
H    3.89234352  -1.40696365  -3.38756811 
H    4.37347479   0.01062867  -2.33882360 
H    3.65498947   0.29069107  -3.89001273 
*
