! EnGrad PBEh-3c
%output 
xyzfile=True 
end 
%scf 
maxiter 250 
end
%output
Print[P_Hirshfeld] = 1
end
% maxcore
4000
*xyz 0 1
Pd   0.36851805   0.31606718  -0.21061965 
O    1.86529499   1.38447013   0.65664405 
C    1.64105126   2.59378705   0.33541190 
O    0.55877077   2.90549232  -0.17763423 
C    2.72840959   3.56924614   0.62809763 
H    2.26066394   4.44149413   1.04329624 
H    3.18955677   3.87403511  -0.30200291 
H    3.53066249   3.24818782   1.29460359 
N   -1.33720785  -0.73085372  -0.99917861 
C   -1.19940121  -1.92893215  -1.90449773 
H   -0.56308951  -1.67108261  -2.75739810 
H   -2.19831643  -2.31574582  -2.21261607 
H   -0.68860454  -2.76353547  -1.41828171 
C   -2.06122842   0.28098770  -1.81090035 
H   -2.18367396   1.19606790  -1.22768311 
H   -3.07014183  -0.02493303  -2.15621438 
H   -1.45260117   0.52201261  -2.67546779 
C   -1.70241527  -1.02313231   1.48785041 
C   -1.59644032  -2.14909133   2.31664498 
C   -1.26033688  -1.99632678   3.65617454 
C   -1.08695694  -0.71695605   4.20474353 
C   -1.16995607   0.42521189   3.39500508 
C   -1.31727993   0.22155638   2.02589474 
H   -0.87488687  -0.59776132   5.26188630 
H   -1.18656766   1.43726004   3.80869612 
H   -1.62617182  -3.12191877   1.85318185 
H   -1.05483244  -2.88397488   4.25413086 
H   -1.73277596   3.05186141   1.30873702 
C   -2.25672413  -1.16432710   0.08947771 
H   -3.13909943  -0.52823824   0.06562701 
H   -2.54255047  -2.21099354  -0.07755112 
O    1.83028234   0.24501738  -1.69499757 
C    2.22856617  -0.68953298  -2.50731649 
O    1.60318659  -1.67567661  -2.85880900 
C    3.61146620  -0.42859269  -3.06793671 
H    3.91576622  -1.40697068  -3.39414436 
H    4.32936539  -0.00171202  -2.34769191 
H    3.64674852   0.28781062  -3.88902740 
*
