! EnGrad PBEh-3c
%output 
xyzfile=True 
end 
%scf 
maxiter 250 
end
%output
Print[P_Hirshfeld] = 1
end
% maxcore
4000
*xyz 0 1
Pd   0.34296683   0.30679489  -0.23221095 
O    1.83957586   1.37789512   0.66854601 
C    1.58813700   2.60871828   0.32479707 
O    0.58679983   2.89965485  -0.15495788 
C    2.72509734   3.57462947   0.62680347 
H    2.24488351   4.43899539   1.04809547 
H    3.17883984   3.85719946  -0.30927360 
H    3.50545350   3.22509419   1.28757065 
N   -1.32618270  -0.71929652  -1.00379326 
C   -1.18726089  -1.90007737  -1.90101201 
H   -0.58275372  -1.67121356  -2.75547147 
H   -2.17554256  -2.29538870  -2.22383516 
H   -0.68931259  -2.74628401  -1.44810500 
C   -2.05713170   0.29797096  -1.79606827 
H   -2.19372265   1.18719354  -1.21860893 
H   -3.06227189  -0.00798357  -2.14968101 
H   -1.46759260   0.55198407  -2.66369726 
C   -1.66667605  -1.00526192   1.46371611 
C   -1.56227777  -2.12119324   2.31133373 
C   -1.27370621  -1.98209684   3.65950369 
C   -1.07971108  -0.70621340   4.19661582 
C   -1.17756325   0.43519942   3.37174190 
C   -1.34068810   0.23813676   2.00921881 
H   -0.89770021  -0.59260933   5.27513751 
H   -1.15803507   1.43740372   3.80140206 
H   -1.57643694  -3.10393138   1.83067295 
H   -0.99408486  -2.87570946   4.22918904 
H   -1.71270013   2.89616754   1.32674162 
C   -2.24218635  -1.15369194   0.10370836 
H   -3.16078076  -0.54488111   0.03558634 
H   -2.51610743  -2.20515018  -0.07750969 
O    1.79034588   0.24950306  -1.68853644 
C    2.21592056  -0.68676076  -2.49230214 
O    1.61256851  -1.66778814  -2.82552323 
C    3.61450568  -0.44099093  -3.04942455 
H    3.92341822  -1.43749969  -3.37343416 
H    4.28768570  -0.02822920  -2.33423708 
H    3.65617272   0.26866343  -3.87837123 
*
