! EnGrad PBEh-3c
%output 
xyzfile=True 
end 
%scf 
maxiter 250 
end
%output
Print[P_Hirshfeld] = 1
end
% maxcore
4000
*xyz 0 1
Pd   0.34601705   0.30508418  -0.23334993 
O    1.81896962   1.35353467   0.67257058 
C    1.60194385   2.59281437   0.34534883 
O    0.55063499   2.92547806  -0.17060479 
C    2.71817448   3.57686133   0.62614197 
H    2.23648607   4.44856678   1.05411891 
H    3.17470933   3.85052900  -0.31922054 
H    3.48846089   3.20760846   1.28451344 
N   -1.34024048  -0.72375292  -1.02349002 
C   -1.18165670  -1.88948114  -1.90273974 
H   -0.59439268  -1.66608979  -2.75945704 
H   -2.15724769  -2.27256029  -2.22861675 
H   -0.68556800  -2.73326216  -1.45693199 
C   -2.05455343   0.31053246  -1.79267383 
H   -2.20067683   1.19023019  -1.20682798 
H   -3.04963340  -0.00362165  -2.14136594 
H   -1.47407664   0.57211462  -2.66119750 
C   -1.64552683  -0.98108387   1.45314661 
C   -1.53120933  -2.10344854   2.30533944 
C   -1.26196918  -1.97077144   3.65545753 
C   -1.08271970  -0.69872227   4.19220145 
C   -1.17995695   0.43996544   3.35838723 
C   -1.36661754   0.25673067   2.00377273 
H   -0.91191400  -0.58858972   5.27396175 
H   -1.13722036   1.42933636   3.79492434 
H   -1.55152750  -3.09015048   1.82310127 
H   -0.96738793  -2.86455202   4.21517884 
H   -1.69636088   2.77170481   1.33991320 
C   -2.23288448  -1.14691173   0.10901863 
H   -3.16979209  -0.56155775   0.02070068 
H   -2.50118472  -2.19526154  -0.07367918 
O    1.76265767   0.25304602  -1.68111546 
C    2.20699307  -0.67213024  -2.48330193 
O    1.61361946  -1.67289469  -2.80572359 
C    3.61129361  -0.45312582  -3.04107996 
H    3.93593039  -1.45159692  -3.36407079 
H    4.26864187  -0.04554102  -2.31524613 
H    3.65618401   0.25199074  -3.87459125 
*
