! EnGrad PBEh-3c
%output 
xyzfile=True 
end 
%scf 
maxiter 250 
end
%output
Print[P_Hirshfeld] = 1
end
% maxcore
4000
*xyz 0 1
Pd   0.34265486   0.29926885  -0.23481093 
O    1.77701712   1.32349186   0.67966323 
C    1.58205678   2.57444690   0.36170476 
O    0.52599886   2.95728084  -0.17474343 
C    2.69805553   3.57748953   0.62432448 
H    2.22208478   4.46129357   1.06304852 
H    3.16397816   3.83587393  -0.33516127 
H    3.45798053   3.17435318   1.28028720 
N   -1.35710705  -0.72100184  -1.04764133 
C   -1.17632538  -1.87002861  -1.90760390 
H   -0.60978871  -1.65132064  -2.77367227 
H   -2.12866195  -2.23210974  -2.23937934 
H   -0.67534153  -2.71077332  -1.47306186 
C   -2.05154654   0.32971258  -1.78874422 
H   -2.21470234   1.20029006  -1.17928690 
H   -3.03020262   0.00646210  -2.12732197 
H   -1.48516847   0.61392880  -2.65638929 
C   -1.60889028  -0.94495577   1.43742726 
C   -1.47410692  -2.07204573   2.28661096 
C   -1.23685664  -1.95134677   3.64398525 
C   -1.08958075  -0.67756889   4.18503924 
C   -1.18164377   0.44652535   3.34206248 
C   -1.41038474   0.30742317   1.99225348 
H   -0.94071049  -0.57838083   5.26865580 
H   -1.09657007   1.42053918   3.78167984 
H   -1.49799963  -3.05888570   1.80735797 
H   -0.91225148  -2.84349435   4.18713770 
H   -1.66050250   2.51497841   1.36562929 
C   -2.22100047  -1.13412770   0.10336573 
H   -3.18303307  -0.59436358  -0.00663792 
H   -2.46878903  -2.17893429  -0.06553684 
O    1.71862924   0.25892519  -1.66898612 
C    2.18627001  -0.65866059  -2.46722225 
O    1.61212462  -1.67545015  -2.77087033 
C    3.59822409  -0.48106875  -3.02854153 
H    3.95490150  -1.47576978  -3.34036550 
H    4.23868920  -0.07562653  -2.27124080 
H    3.65809274   0.21881988  -3.86390308 
*
