! EnGrad PBEh-3c
%output 
xyzfile=True 
end 
%scf 
maxiter 250 
end
%output
Print[P_Hirshfeld] = 1
end
% maxcore
4000
*xyz 0 1
Pd   0.36220016   0.29731979  -0.20954195 
O    1.76302561   1.30628835   0.67143397 
C    1.56517920   2.55625367   0.36181644 
O    0.52480762   2.97479091  -0.17199334 
C    2.68697131   3.57368486   0.62506231 
H    2.22851185   4.47538650   1.06504174 
H    3.16297058   3.84039371  -0.33773901 
H    3.45536486   3.17016679   1.28323620 
N   -1.37856874  -0.72743895  -1.05727937 
C   -1.17499260  -1.88315837  -1.91902795 
H   -0.60481538  -1.63989494  -2.78661532 
H   -2.13655608  -2.22058542  -2.23958884 
H   -0.66550756  -2.70795973  -1.44939567 
C   -2.05169990   0.33861133  -1.79738242 
H   -2.21395060   1.21419776  -1.16971749 
H   -3.02327696  -0.00560199  -2.12496939 
H   -1.47661654   0.61841059  -2.66713505 
C   -1.61420739  -0.93237605   1.44208891 
C   -1.45584210  -2.06310117   2.27616929 
C   -1.19831188  -1.94992641   3.62972324 
C   -1.10149223  -0.67344531   4.17948652 
C   -1.17215907   0.44140647   3.35029149 
C   -1.42526841   0.34227041   1.99581192 
H   -0.94129296  -0.57227953   5.24893837 
H   -1.08401460   1.41291112   3.77764626 
H   -1.51267947  -3.05599391   1.81936774 
H   -0.93661448  -2.83208613   4.19084791 
H   -1.63854165   2.43407465   1.36708299 
C   -2.22302835  -1.13062511   0.08857865 
H   -3.17445622  -0.60286182   0.00491135 
H   -2.47473903  -2.17238859  -0.05584748 
O    1.72465918   0.26325726  -1.67629285 
C    2.16619178  -0.66566262  -2.46600206 
O    1.61069232  -1.68989090  -2.76619949 
C    3.59407470  -0.47801661  -3.02451327 
H    3.96900308  -1.46096479  -3.34721905 
H    4.25006054  -0.07534031  -2.25507511 
H    3.64384203   0.21328503  -3.86833537 
*
