! EnGrad PBEh-3c
%output 
xyzfile=True 
end 
%scf 
maxiter 250 
end
%output
Print[P_Hirshfeld] = 1
end
% maxcore
4000
*xyz 0 1
Pd   0.35557495   0.28365893  -0.20546015 
O    1.76019209   1.31974746   0.67074566 
C    1.56673749   2.56159242   0.36178014 
O    0.52304828   2.97241275  -0.16333186 
C    2.67923592   3.56804238   0.62506048 
H    2.23358279   4.47479677   1.06262053 
H    3.15836392   3.84096175  -0.33224865 
H    3.45439290   3.17270606   1.28387355 
N   -1.36942718  -0.71937494  -1.04732433 
C   -1.17605360  -1.88420830  -1.92137955 
H   -0.60102171  -1.63552739  -2.79200142 
H   -2.14890324  -2.22479204  -2.24296459 
H   -0.66275810  -2.70771143  -1.44009775 
C   -2.05164478   0.34037137  -1.79826734 
H   -2.21182912   1.21709390  -1.16935678 
H   -3.02744666  -0.00783339  -2.12898402 
H   -1.47249397   0.61925921  -2.67005885 
C   -1.61877638  -0.93159217   1.44045956 
C   -1.45248656  -2.06600074   2.27011535 
C   -1.19009319  -1.94704501   3.62286743 
C   -1.09850232  -0.67670094   4.17529124 
C   -1.16836461   0.44258478   3.35218506 
C   -1.42275013   0.35635859   1.99146993 
H   -0.94099301  -0.56709235   5.24254370 
H   -1.07956921   1.41702580   3.77763980 
H   -1.52205862  -3.05528615   1.82547215 
H   -0.94763371  -2.83268646   4.19582446 
H   -1.62249730   2.40498970   1.36377799 
C   -2.22610031  -1.13058609   0.08170955 
H   -3.17341902  -0.60060265   0.01369825 
H   -2.48085854  -2.17486173  -0.05125736 
O    1.73362461   0.25392626  -1.68216159 
C    2.17292065  -0.66686154  -2.45998597 
O    1.59867791  -1.70007053  -2.77507382 
C    3.59178296  -0.47566805  -3.02024897 
H    3.97411931  -1.44899913  -3.34939981 
H    4.25537423  -0.07304687  -2.25248916 
H    3.63800257   0.21463399  -3.86707601 
*
