! EnGrad PBEh-3c
%output 
xyzfile=True 
end 
%scf 
maxiter 250 
end
%output
Print[P_Hirshfeld] = 1
end
% maxcore
4000
*xyz 0 1
Pd   0.34654659   0.25166154  -0.18694013 
O    1.74118729   1.33291484   0.67072623 
C    1.55016224   2.57216984   0.36372712 
O    0.50957435   2.97948950  -0.13688166 
C    2.65947063   3.55695063   0.62730251 
H    2.24416920   4.47927626   1.05824548 
H    3.14162164   3.84056956  -0.32110556 
H    3.44234865   3.17352479   1.28411237 
N   -1.35845139  -0.70725614  -1.03986624 
C   -1.17780152  -1.88481640  -1.93210591 
H   -0.59561216  -1.61860688  -2.80756985 
H   -2.17431091  -2.22229596  -2.25070430 
H   -0.65403720  -2.69887691  -1.41583645 
C   -2.05082058   0.35455912  -1.80031266 
H   -2.20897324   1.22974678  -1.16293745 
H   -3.03023858  -0.01301274  -2.13540045 
H   -1.46219923   0.63042932  -2.67644352 
C   -1.62551088  -0.91327181   1.43294502 
C   -1.42959951  -2.05767420   2.25136984 
C   -1.15404614  -1.94025488   3.60006984 
C   -1.09263554  -0.67813631   4.15850176 
C   -1.15455491   0.44945092   3.34502149 
C   -1.42240709   0.40182098   1.97698121 
H   -0.94591428  -0.54859564   5.21944011 
H   -1.05630446   1.42438138   3.77294094 
H   -1.54162429  -3.05532644   1.83880636 
H   -0.97312289  -2.82691199   4.20382551 
H   -1.55798770   2.25632696   1.35653387 
C   -2.22828880  -1.12903916   0.07251171 
H   -3.17394168  -0.59958791   0.03581064 
H   -2.49419810  -2.17765347  -0.03780460 
O    1.74540645   0.23403343  -1.68385792 
C    2.17067921  -0.70163841  -2.45665900 
O    1.57957124  -1.71112588  -2.78795252 
C    3.58848200  -0.47059529  -3.00015374 
H    3.99617233  -1.41956155  -3.35231105 
H    4.26403554  -0.07259580  -2.23667030 
H    3.61821307   0.21202603  -3.85929831 
*
