! EnGrad PBEh-3c
%output 
xyzfile=True 
end 
%scf 
maxiter 250 
end
%output
Print[P_Hirshfeld] = 1
end
% maxcore
4000
*xyz 0 1
Pd   0.34302279   0.21766850  -0.16827729 
O    1.73334147   1.34975892   0.67394156 
C    1.50867159   2.59167477   0.36142995 
O    0.49954441   2.98409936  -0.08980377 
C    2.64949242   3.55539782   0.63435488 
H    2.25944598   4.48269012   1.05016609 
H    3.12006436   3.84454870  -0.30387446 
H    3.43325463   3.18552897   1.28555698 
N   -1.34854157  -0.70297478  -1.03570846 
C   -1.18680058  -1.88949096  -1.94035831 
H   -0.59099567  -1.60498330  -2.81508532 
H   -2.20452459  -2.22772322  -2.25286697 
H   -0.65373934  -2.68680975  -1.38575377 
C   -2.04907275   0.36246308  -1.80463153 
H   -2.20018735   1.24262808  -1.16759669 
H   -3.03194303  -0.01777829  -2.14597779 
H   -1.44759457   0.63047872  -2.67986851 
C   -1.63796880  -0.90451423   1.42944135 
C   -1.42091107  -2.05265085   2.23243570 
C   -1.11965232  -1.94404146   3.57978605 
C   -1.07401354  -0.67774585   4.13165000 
C   -1.13366909   0.45586409   3.32608295 
C   -1.39842962   0.43176388   1.95444977 
H   -0.94241845  -0.52762479   5.19033953 
H   -1.03601730   1.43180161   3.76697774 
H   -1.59223887  -3.06867049   1.86308099 
H   -1.02928905  -2.82265155   4.22229479 
H   -1.46490843   2.14678865   1.32981616 
C   -2.23659366  -1.13293499   0.07576925 
H   -3.17301761  -0.58344665   0.07675703 
H   -2.52761662  -2.18390949  -0.02505797 
O    1.76169418   0.19240583  -1.67107466 
C    2.18546385  -0.73769680  -2.45903886 
O    1.56061343  -1.73084403  -2.82313173 
C    3.59152819  -0.45867216  -2.98399902 
H    4.02613720  -1.37370657  -3.36635570 
H    4.27839411  -0.06006445  -2.23195921 
H    3.58721745   0.22185773  -3.84350539 
*
