! EnGrad PBEh-3c
%output 
xyzfile=True 
end 
%scf 
maxiter 250 
end
%output
Print[P_Hirshfeld] = 1
end
% maxcore
4000
*xyz 0 1
Pd   0.33890963   0.20351857  -0.16752146 
O    1.71803731   1.35700849   0.68113962 
C    1.51545728   2.58698602   0.38928426 
O    0.44083023   3.01193395  -0.07291415 
C    2.63850835   3.55827807   0.63801292 
H    2.26060272   4.48662534   1.04880546 
H    3.10261878   3.84001835  -0.30131981 
H    3.42065083   3.18219733   1.28651920 
N   -1.35092859  -0.70411327  -1.03962951 
C   -1.19082742  -1.88240993  -1.94068167 
H   -0.59513669  -1.59952121  -2.81207346 
H   -2.20522006  -2.22435870  -2.25342965 
H   -0.65888375  -2.66966448  -1.38290363 
C   -2.04535282   0.36494887  -1.80370236 
H   -2.19791539   1.24564433  -1.17050593 
H   -3.02557535  -0.01149937  -2.14864160 
H   -1.44443859   0.63897213  -2.67361445 
C   -1.62943818  -0.89509917   1.42145449 
C   -1.41295526  -2.04482989   2.22206878 
C   -1.10804790  -1.93900422   3.57136222 
C   -1.05625331  -0.66871217   4.11095786 
C   -1.11861921   0.46504274   3.30206595 
C   -1.38038822   0.44893163   1.92864478 
H   -0.94675179  -0.51494800   5.17510463 
H   -1.00912704   1.43204858   3.75604209 
H   -1.60975816  -3.06231746   1.86934500 
H   -1.04592339  -2.81228220   4.22286086 
H   -1.38502228   2.01460303   1.31432172 
C   -2.24111303  -1.13182059   0.08169076 
H   -3.17658449  -0.57612113   0.09119138 
H   -2.53893534  -2.18324317  -0.02185115 
O    1.75532129   0.15607149  -1.64799066 
C    2.18812142  -0.74621202  -2.45248270 
O    1.56371942  -1.73203332  -2.83700285 
C    3.59258060  -0.46122474  -2.97688192 
H    4.04457046  -1.36051727  -3.36858424 
H    4.26622842  -0.05797939  -2.22382120 
H    3.56719918   0.22473045  -3.82313630 
*
