! EnGrad PBEh-3c
%output 
xyzfile=True 
end 
%scf 
maxiter 250 
end
%output
Print[P_Hirshfeld] = 1
end
% maxcore
4000
*xyz 0 1
Pd   0.33790599   0.21815673  -0.18070791 
O    1.72071114   1.35710607   0.68901721 
C    1.51345055   2.59291766   0.40711348 
O    0.41376721   3.02227755  -0.06177337 
C    2.64197936   3.56572750   0.64034203 
H    2.25282271   4.48786649   1.05126581 
H    3.09813217   3.83574044  -0.30875485 
H    3.42086489   3.18077351   1.28795237 
N   -1.36187504  -0.71492317  -1.04400813 
C   -1.19342027  -1.87634875  -1.93142978 
H   -0.59940158  -1.60901419  -2.79376900 
H   -2.18764685  -2.22894252  -2.24631992 
H   -0.67162006  -2.66349269  -1.39782721 
C   -2.04293565   0.35362196  -1.80068948 
H   -2.19637508   1.23561037  -1.18164485 
H   -3.02020541  -0.00201090  -2.14806753 
H   -1.44725397   0.63367311  -2.66254613 
C   -1.61863744  -0.90582336   1.41970716 
C   -1.43322478  -2.04973743   2.23365640 
C   -1.13036014  -1.93761462   3.58002029 
C   -1.04305655  -0.66181973   4.10682799 
C   -1.10967198   0.46672869   3.28379648 
C   -1.35131142   0.42117968   1.91234811 
H   -0.94401475  -0.51869968   5.17738168 
H   -1.00032127   1.42678142   3.74578446 
H   -1.61769400  -3.05724474   1.86463529 
H   -1.04683925  -2.80760376   4.22036306 
H   -1.34981403   2.02670990   1.29536044 
C   -2.24525885  -1.13362149   0.09196897 
H   -3.17699502  -0.56503302   0.08992906 
H   -2.54256700  -2.18196464  -0.03332357 
O    1.74777255   0.13801103  -1.61668221 
C    2.18747172  -0.74077831  -2.45256493 
O    1.58957738  -1.71218086  -2.84454184 
C    3.59523343  -0.46432314  -2.98547387 
H    4.03878880  -1.37233823  -3.37054798 
H    4.24736031  -0.05214986  -2.23150123 
H    3.56147341   0.23619922  -3.81078040 
*
