! EnGrad PBEh-3c
%output 
xyzfile=True 
end 
%scf 
maxiter 250 
end
%output
Print[P_Hirshfeld] = 1
end
% maxcore
4000
*xyz 0 1
Pd   0.29790149   0.21941231  -0.13611644 
O    1.65353885   1.40749558   0.70878949 
C    1.39059484   2.65467055   0.48453766 
O    0.30786652   3.08693454   0.14449455 
C    2.59729165   3.58126462   0.65917160 
H    2.25674729   4.53455089   1.06265975 
H    3.02804197   3.80688827  -0.32379934 
H    3.38851697   3.17065054   1.29151203 
N   -1.40853174  -0.73391577  -1.03608425 
C   -1.19753373  -1.88333679  -1.90565222 
H   -0.57221080  -1.62291186  -2.74343065 
H   -2.16296796  -2.25871020  -2.22885224 
H   -0.68807316  -2.64649055  -1.34347826 
C   -2.03160916   0.33082361  -1.81488797 
H   -2.17529059   1.22439752  -1.22020150 
H   -3.00134749  -0.00580069  -2.17500341 
H   -1.40534807   0.60116104  -2.65744636 
C   -1.57710255  -0.92936143   1.39050215 
C   -1.50272383  -2.04969090   2.24339875 
C   -1.15948218  -1.91599500   3.57278447 
C   -0.98548309  -0.62824838   4.04459462 
C   -0.96625753   0.46300523   3.17568046 
C   -1.17971370   0.41918817   1.78294492 
H   -0.91942573  -0.49278672   5.11704740 
H   -0.83185752   1.41256007   3.65399822 
H   -1.78969902  -3.04667978   1.88888544 
H   -1.18283534  -2.76624166   4.25327586 
H   -0.92693715   1.68765628   1.11974140 
C   -2.28058005  -1.13362175   0.09087768 
H   -3.16607546  -0.49645904   0.14017648 
H   -2.62812432  -2.16361031  -0.05866031 
O    1.77710980   0.05630512  -1.49041739 
C    2.18893535  -0.77063087  -2.40776267 
O    1.62977635  -1.74377133  -2.89812094 
C    3.56534817  -0.42353177  -2.97577958 
H    4.03429648  -1.32258527  -3.41597325 
H    4.21336664   0.01442155  -2.21700647 
H    3.43631638   0.32210152  -3.77417213 
*
