! EnGrad PBEh-3c
%output 
xyzfile=True 
end 
%scf 
maxiter 250 
end
%output
Print[P_Hirshfeld] = 1
end
% maxcore
4000
*xyz 0 1
Pd   0.29428894   0.22801909  -0.12696333 
O    1.60668751   1.42710837   0.71213381 
C    1.37452261   2.68037928   0.53692100 
O    0.23018423   3.12706823   0.28177976 
C    2.56493408   3.59275789   0.66540398 
H    2.27110980   4.56062467   1.07815175 
H    2.98800972   3.76665290  -0.33018927 
H    3.35593858   3.15068464   1.27875172 
N   -1.40103379  -0.72227713  -1.03105251 
C   -1.16883190  -1.90650307  -1.87144246 
H   -0.52743099  -1.65382154  -2.71059537 
H   -2.13634066  -2.29607884  -2.23065844 
H   -0.67170014  -2.67721934  -1.28357799 
C   -2.02663827   0.32276777  -1.84380360 
H   -2.17085952   1.21747667  -1.24222034 
H   -3.00058170  -0.02751152  -2.21129807 
H   -1.37155137   0.55930432  -2.68071915 
C   -1.55487030  -0.90490053   1.36307648 
C   -1.56529509  -2.01427025   2.23453377 
C   -1.23757086  -1.88345575   3.57583413 
C   -0.97241342  -0.60109613   4.01434977 
C   -0.84415936   0.48469066   3.12424327 
C   -1.05741242   0.40469877   1.73461946 
H   -0.88028120  -0.46890772   5.08816792 
H   -0.66635360   1.43549677   3.59647847 
H   -1.90313734  -2.99139427   1.88165679 
H   -1.26213804  -2.73006424   4.25959613 
H   -0.76987641   1.24500478   1.09590745 
C   -2.28988620  -1.10362073   0.07890728 
H   -3.16657323  -0.45719085   0.11542597 
H   -2.66390006  -2.12749200  -0.06852309 
O    1.78159206   0.05475194  -1.48597027 
C    2.19050011  -0.77540962  -2.38209185 
O    1.62624173  -1.76348904  -2.81090038 
C    3.52854994  -0.37015975  -2.97761369 
H    3.96866135  -1.25713890  -3.43208449 
H    4.19744071   0.06285185  -2.22830378 
H    3.35018337   0.36959091  -3.76747349 
*
