! EnGrad PBEh-3c
%output 
xyzfile=True 
end 
%scf 
maxiter 250 
end
%output
Print[P_Hirshfeld] = 1
end
% maxcore
4000
*xyz 0 1
Pd   0.43395438   0.13164986  -0.23953722 
O    1.98784616   1.33012180   0.62946379 
C    1.72168560   2.59836266   0.33463808 
O    0.69420939   2.91004869  -0.16046734 
C    2.79518265   3.63740837   0.64055860 
H    2.34489283   4.54081458   1.06417924 
H    3.25419758   3.94250989  -0.30084968 
H    3.56783805   3.27873653   1.29998098 
N   -1.36718738  -0.78705132  -0.98228996 
C   -1.20080242  -1.99469737  -1.79526231 
H   -0.61430770  -1.82574413  -2.67973268 
H   -2.15103914  -2.36940849  -2.20368752 
H   -0.72025193  -2.75694192  -1.20481437 
C   -1.99649317   0.19899240  -1.86858819 
H   -2.09982471   1.14766625  -1.37676462 
H   -2.98717305  -0.14180820  -2.19323773 
H   -1.40485597   0.34800902  -2.76642383 
C   -1.60542306  -1.10699280   1.45214328 
C   -1.58580365  -2.20754998   2.34738670 
C   -1.32596193  -2.03566193   3.69202614 
C   -0.99113093  -0.79101174   4.17781203 
C   -1.16538915   0.32751467   3.35391773 
C   -1.42376622   0.14191786   2.01199240 
H   -0.77979873  -0.65451687   5.23567849 
H   -1.11341988   1.28358302   3.84191126 
H   -2.10452266  -3.11692814   2.08941622 
H   -1.49955197  -2.85202671   4.39098827 
H   -1.69827071   3.59964569   1.20091038 
C   -2.31112201  -1.14107234   0.13716111 
H   -3.16850872  -0.45331392   0.17911761 
H   -2.80636168  -2.11257795   0.02345219 
O    1.66499416   0.27851752  -1.81321853 
C    2.30699459  -0.63961818  -2.48080264 
O    1.84986424  -1.70899804  -2.66330325 
C    3.61656002  -0.30457963  -3.19930185 
H    4.09481819  -1.17797727  -3.66070534 
H    4.33844420   0.08096874  -2.50416266 
H    3.44895219   0.40181625  -4.01015660 
*
