! EnGrad PBEh-3c
%output 
xyzfile=True 
end 
%scf 
maxiter 250 
end
%output
Print[P_Hirshfeld] = 1
end
% maxcore
4000
*xyz 0 1
Pd   0.31860571   0.23160245  -0.15675777 
O    1.61643335   1.42128155   0.71030383 
C    1.34957097   2.68898275   0.54418121 
O    0.25859606   3.12006791   0.30533123 
C    2.56627989   3.59540953   0.66564793 
H    2.27820491   4.55957672   1.08266754 
H    2.98500316   3.75110075  -0.33017114 
H    3.34631372   3.14343492   1.26884563 
N   -1.38136766  -0.71774489  -1.04110545 
C   -1.15178981  -1.92214907  -1.86064743 
H   -0.50954703  -1.67480846  -2.69894268 
H   -2.11784134  -2.30790089  -2.23295094 
H   -0.65920383  -2.69991935  -1.26774916 
C   -2.02568326   0.32070183  -1.85870655 
H   -2.17654144   1.21569944  -1.24901301 
H   -3.00183596  -0.03735347  -2.22529077 
H   -1.36823531   0.54263213  -2.69648338 
C   -1.56004767  -0.89795043   1.36585622 
C   -1.58893929  -1.98972994   2.22893153 
C   -1.28050051  -1.86475650   3.57255358 
C   -0.98137944  -0.58606448   4.01607850 
C   -0.81285369   0.48908114   3.13627299 
C   -1.04767221   0.30789583   1.79030254 
H   -0.85984899  -0.45881976   5.08734631 
H   -0.60789730   1.45399853   3.58217778 
H   -1.92035288  -2.95573787   1.86740480 
H   -1.26970991  -2.71767470   4.25129489 
H   -0.82379076   1.15967926   1.11838954 
C   -2.27851172  -1.08187360   0.07239516 
H   -3.17088767  -0.45178120   0.08088144 
H   -2.65593787  -2.10628939  -0.06616822 
O    1.76736679   0.09888366  -1.51582748 
C    2.18739730  -0.76012200  -2.37501715 
O    1.61706350  -1.78213535  -2.73762681 
C    3.51237747  -0.35053383  -2.98398022 
H    3.93205386  -1.23555779  -3.43200381 
H    4.19475387   0.07440350  -2.24633216 
H    3.33735586   0.37620779  -3.77601628 
*
