! EnGrad PBEh-3c
%output 
xyzfile=True 
end 
%scf 
maxiter 250 
end
%output
Print[P_Hirshfeld] = 1
end
% maxcore
4000
*xyz 0 1
Pd   0.49287575   0.29702322  -0.15175505 
O    1.94689477   1.21084194   0.62201443 
C    1.66070537   2.60763699   0.32861853 
O    0.59564490   2.93907484  -0.20121812 
C    2.78954185   3.61701436   0.63888351 
H    2.31357726   4.51620180   1.05554430 
H    3.23967119   3.93592536  -0.30779576 
H    3.57839704   3.28489049   1.30957520 
N   -1.44049135  -0.83275714  -1.08026734 
C   -1.19091769  -2.02482718  -1.88406285 
H   -0.57752193  -1.73680946  -2.71469650 
H   -2.18439186  -2.32315591  -2.17495293 
H   -0.70192831  -2.77035428  -1.26695092 
C   -2.04115041   0.26285655  -1.86420979 
H   -2.13465128   1.19697717  -1.30515000 
H   -3.00767428  -0.11949127  -2.16113920 
H   -1.40752637   0.40100608  -2.73652477 
C   -1.70267351  -1.04259219   1.50912522 
C   -1.60813909  -2.16859825   2.34232747 
C   -1.22964468  -2.03430147   3.66120434 
C   -1.08376455  -0.76064876   4.18161357 
C   -1.15113006   0.36858050   3.37602183 
C   -1.35885634   0.14536785   2.06818013 
H   -0.79746843  -0.63086946   5.22199038 
H   -1.18221047   1.32645015   3.82143926 
H   -1.92495652  -3.16127666   1.99718609 
H   -1.35900670  -2.86660027   4.34993158 
H   -1.73201465   3.47427676   1.23681085 
C   -2.28241825  -1.16994588   0.15831637 
H   -3.12125339  -0.48551737   0.15912755 
H   -2.70156963  -2.15721454  -0.03521273 
O    1.77514817   0.30587036  -1.72851639 
C    2.20791182  -0.70385113  -2.56071773 
O    1.75297881  -1.71823408  -2.77456833 
C    3.64759961  -0.32379555  -3.13204287 
H    4.00306353  -1.27642563  -3.55729075 
H    4.38470629   0.06136724  -2.43876077 
H    3.52923332   0.35354295  -3.96648386 
*
