! EnGrad PBEh-3c
%output 
xyzfile=True 
end 
%scf 
maxiter 250 
end
%output
Print[P_Hirshfeld] = 1
end
% maxcore
4000
*xyz 0 1
Pd   0.46357437   0.21526583  -0.19588476 
O    1.97388459   1.26652894   0.62778765 
C    1.66943784   2.60877766   0.32192677 
O    0.66166156   2.91997790  -0.17320645 
C    2.79703942   3.62936441   0.64020581 
H    2.32849461   4.53004013   1.05992101 
H    3.24645793   3.94005949  -0.30430918 
H    3.57227418   3.28300630   1.30408046 
N   -1.40837346  -0.81583903  -1.04303588 
C   -1.19274406  -2.00949893  -1.84284968 
H   -0.60037153  -1.78028441  -2.69518681 
H   -2.16624454  -2.34274327  -2.18913204 
H   -0.71163664  -2.76153749  -1.23704129 
C   -2.01964515   0.23686276  -1.86443093 
H   -2.11770681   1.17083438  -1.34168888 
H   -2.99563818  -0.13170429  -2.17520513 
H   -1.40707080   0.37469280  -2.75071162 
C   -1.65403513  -1.06628019   1.47809121 
C   -1.59146136  -2.18825164   2.34754211 
C   -1.27470573  -2.03456708   3.67406164 
C   -1.03868488  -0.77831680   4.17713496 
C   -1.16149832   0.35070137   3.35874841 
C   -1.39447429   0.13607617   2.04337025 
H   -0.78772202  -0.64267273   5.23015094 
H   -1.15192429   1.30032505   3.83177054 
H   -2.01369168  -3.13962208   2.04481542 
H   -1.42946845  -2.85901288   4.37118668 
H   -1.71751692   3.54156136   1.21933423 
C   -2.29387117  -1.15765392   0.15925230 
H   -3.14590902  -0.47141830   0.16984185 
H   -2.75417917  -2.13507656  -0.00649540 
O    1.71698977   0.28743855  -1.76427427 
C    2.26400393  -0.65350873  -2.52384667 
O    1.79516328  -1.72130682  -2.72280082 
C    3.63911562  -0.31100754  -3.16010090 
H    4.04952756  -1.23111108  -3.60908404 
H    4.35877108   0.06547105  -2.47451768 
H    3.49006050   0.37332649  -3.98779573 
*
