! EnGrad PBEh-3c
%output 
xyzfile=True 
end 
%scf 
maxiter 250 
end
%output
Print[P_Hirshfeld] = 1
end
% maxcore
4000
*xyz 0 1
Pd   0.52469276   0.40402784  -0.10103971 
O    1.89643101   1.17740667   0.61109819 
C    1.57027693   2.60686099   0.29947698 
O    0.59383036   2.93545040  -0.19352605 
C    2.76990261   3.59570095   0.63622769 
H    2.29129827   4.49245723   1.04802714 
H    3.22710644   3.92691570  -0.31183412 
H    3.58298870   3.28611987   1.31510656 
N   -1.46608051  -0.83711951  -1.10068257 
C   -1.19203559  -2.03084034  -1.93690188 
H   -0.54436342  -1.67222603  -2.74982852 
H   -2.21550229  -2.30325741  -2.16530961 
H   -0.68628075  -2.78279047  -1.31892060 
C   -2.07017697   0.29311641  -1.85695613 
H   -2.16077000   1.22962432  -1.24955636 
H   -3.03547387  -0.09490607  -2.14530965 
H   -1.41212806   0.44716427  -2.71485096 
C   -1.76583108  -1.01867277   1.54559188 
C   -1.62900898  -2.14582616   2.33528243 
C   -1.17178655  -2.02735065   3.64490507 
C   -1.13872167  -0.73955314   4.19551556 
C   -1.14171900   0.39450310   3.40792875 
C   -1.31083174   0.17157283   2.09046082 
H   -0.81789570  -0.61230016   5.21149752 
H   -1.22767033   1.37549821   3.81033029 
H   -1.78085861  -3.18954273   1.92186771 
H   -1.24059066  -2.87915059   4.31509045 
H   -1.75495235   3.36008714   1.26582109 
C   -2.26551332  -1.18422999   0.13306128 
H   -3.09079421  -0.50850316   0.13963783 
H   -2.62001649  -2.19491102  -0.07371722 
O    1.86848918   0.29734949  -1.68570145 
C    2.17188491  -0.68376832  -2.57621302 
O    1.64680340  -1.75622736  -2.87469906 
C    3.64685378  -0.36130888  -3.08800548 
H    3.93440432  -1.34623629  -3.47459816 
H    4.41686007   0.04738503  -2.38131202 
H    3.59312071   0.32219266  -3.93503889 
*
