! EnGrad PBEh-3c
%output 
xyzfile=True 
end 
%scf 
maxiter 250 
end
%output
Print[P_Hirshfeld] = 1
end
% maxcore
4000
*xyz 0 1
C   -1.88483237   0.14439958  -0.15590843 
C   -1.59812994  -0.61772834  -1.27782311 
C   -0.83386344  -1.76797869  -1.16404637 
C   -0.32352486  -2.13111385   0.07188542 
C   -1.40440379  -0.25636394   1.07953281 
C   -0.58342818  -1.36394413   1.19651909 
H   -2.51104802   1.01904169  -0.27798224 
H   -2.00246849  -0.34755407  -2.24415620 
H   -0.65507387  -2.38805800  -2.03016207 
H   -0.15360837  -1.66091134   2.14449072 
H    0.27211377  -3.03064532   0.15278234 
Pd   1.41249410   1.22478015   0.01649463 
O    2.32202331   0.66488232  -1.72529589 
O    2.61548861  -0.42318027   0.11644685 
O    0.31137435   2.93281326  -0.07602278 
C    0.16938961   2.98436393   1.16610659 
O    0.72549884   2.09650191   1.87071496 
H   -1.76234928   0.47160657   2.24664996 
C    2.83158711  -0.30503501  -1.11486589 
H    3.49435112  -1.01042719  -1.63150095 
H   -0.44158868   3.76454075   1.63614362 
*
