! EnGrad PBEh-3c
%output 
xyzfile=True 
end 
%scf 
maxiter 250 
end
%output
Print[P_Hirshfeld] = 1
end
% maxcore
4000
*xyz 0 1
C   -1.89169028   0.15638316  -0.13954905 
C   -1.65334876  -0.63648616  -1.24792831 
C   -0.91475477  -1.80157336  -1.13953679 
C   -0.37150917  -2.14230861   0.08602795 
C   -1.37404338  -0.22561048   1.08161672 
C   -0.58926806  -1.35370295   1.20114820 
H   -2.47614576   1.05858867  -0.26362743 
H   -2.05697383  -0.35391244  -2.19903859 
H   -0.77678727  -2.44696358  -2.00334012 
H   -0.12662065  -1.63394692   2.13760723 
H    0.20920966  -3.03806019   0.17625786 
Pd   1.46242770   1.27553059   0.06578905 
O    2.33718930   0.70702575  -1.68758760 
O    2.61009804  -0.41002132   0.13149922 
O    0.32480376   2.93530869  -0.08202077 
C    0.16443472   2.95811426   1.16529551 
O    0.70895985   2.05410337   1.84652011 
H   -1.59405703   0.34485348   1.95153170 
C    2.87547409  -0.25915386  -1.08810651 
H    3.56084879  -0.94479017  -1.60989253 
H   -0.43784311   3.75385607   1.62243096 
*
