! EnGrad PBEh-3c
%output 
xyzfile=True 
end 
%scf 
maxiter 250 
end
%output
Print[P_Hirshfeld] = 1
end
% maxcore
4000
*xyz 0 1
C   -1.89208088   0.15301315  -0.14971609 
C   -1.66510153  -0.64748592  -1.25609736 
C   -0.93106071  -1.81088335  -1.13788609 
C   -0.37909151  -2.15727394   0.07839179 
C   -1.36581026  -0.23077439   1.06778926 
C   -0.58488879  -1.36169722   1.19213022 
H   -2.47397605   1.07183703  -0.25057017 
H   -2.07311871  -0.34834805  -2.19935175 
H   -0.79958056  -2.44543080  -1.98408106 
H   -0.12721308  -1.62477089   2.14764363 
H    0.20639737  -3.04725530   0.18547418 
Pd   1.47563822   1.28663807   0.06651134 
O    2.33508104   0.71287844  -1.67748536 
O    2.61884197  -0.40417558   0.13937513 
O    0.33225275   2.94186401  -0.08605043 
C    0.16515013   2.95296575   1.15968391 
O    0.70517943   2.04108832   1.84025860 
H   -1.56650583   0.34622908   1.92690438 
C    2.87490590  -0.25233621  -1.08012448 
H    3.56682769  -0.92513131  -1.60121717 
H   -0.43469127   3.74724701   1.62441757 
*
