! EnGrad PBEh-3c
%output 
xyzfile=True 
end 
%scf 
maxiter 250 
end
%output
Print[P_Hirshfeld] = 1
end
% maxcore
4000
*xyz 0 1
C   -1.89225418   0.15203651  -0.15420975 
C   -1.67074517  -0.64991075  -1.26159546 
C   -0.93719767  -1.81401622  -1.13702117 
C   -0.38033313  -2.16519231   0.07679513 
C   -1.36409760  -0.23115212   1.06572423 
C   -0.58267495  -1.36528133   1.18897253 
H   -2.47223484   1.07374798  -0.24391446 
H   -2.08190082  -0.34555135  -2.20830559 
H   -0.80617793  -2.44712647  -1.98138805 
H   -0.13044978  -1.62039815   2.14974271 
H    0.21047065  -3.05817400   0.18766006 
Pd   1.47898432   1.29062710   0.06709366 
O    2.33252094   0.71426930  -1.67476931 
O    2.62429227  -0.40043584   0.14433976 
O    0.33701567   2.94656822  -0.08856762 
C    0.16665234   2.95065477   1.15795110 
O    0.70344718   2.03687922   1.83510615 
H   -1.55833298   0.35632529   1.93026031 
C    2.87460954  -0.25011390  -1.07647091 
H    3.56725351  -0.91784726  -1.59806578 
H   -0.43317694   3.74320057   1.62669805 
*
