! EnGrad PBEh-3c
%output 
xyzfile=True 
end 
%scf 
maxiter 250 
end
%output
Print[P_Hirshfeld] = 1
end
% maxcore
4000
*xyz 0 1
C   -1.89499024   0.15332901  -0.16181490 
C   -1.68254298  -0.65073150  -1.26769348 
C   -0.94901681  -1.81683013  -1.13159069 
C   -0.38270234  -2.17688536   0.07884997 
C   -1.35846679  -0.23526932   1.05568154 
C   -0.57814874  -1.37247920   1.18712704 
H   -2.46711641   1.07494636  -0.23387335 
H   -2.09465208  -0.34324846  -2.21647068 
H   -0.81848935  -2.45512023  -1.98187432 
H   -0.13567400  -1.61284127   2.14960685 
H    0.21213127  -3.07087940   0.19066667 
Pd   1.48617209   1.29678672   0.06833669 
O    2.32841865   0.71789071  -1.66986283 
O    2.63216346  -0.39403499   0.15288097 
O    0.34454828   2.95400382  -0.09166816 
C    0.16819848   2.94766214   1.15614705 
O    0.70025888   2.02991157   1.82611955 
H   -1.54209491   0.36938714   1.92941515 
C    2.87534124  -0.24505436  -1.06988735 
H    3.57018853  -0.90609333  -1.59326794 
H   -0.43037951   3.73610392   1.62933413 
*
