! EnGrad PBEh-3c
%output 
xyzfile=True 
end 
%scf 
maxiter 250 
end
%output
Print[P_Hirshfeld] = 1
end
% maxcore
4000
*xyz 0 1
C   -1.89416867   0.15280807  -0.15927255 
C   -1.69087792  -0.64582630  -1.26922498 
C   -0.95433483  -1.82259146  -1.13435776 
C   -0.38269672  -2.18190513   0.08581649 
C   -1.35800654  -0.22772650   1.06368688 
C   -0.58052484  -1.37081625   1.18693490 
H   -2.46251291   1.07079815  -0.23018261 
H   -2.10320912  -0.34590249  -2.22990535 
H   -0.82379028  -2.46557981  -1.99093589 
H   -0.13970684  -1.60989122   2.14483420 
H    0.21533020  -3.08534221   0.18665442 
Pd   1.48577183   1.29906841   0.07159021 
O    2.32587383   0.71751365  -1.66834002 
O    2.63729900  -0.38785231   0.15798661 
O    0.35060905   2.96049154  -0.09172251 
C    0.16949531   2.94879423   1.15369200 
O    0.69975433   2.02663593   1.81965989 
H   -1.53363535   0.38116743   1.93470802 
C    2.87866448  -0.23976111  -1.06564687 
H    3.57204252  -0.90311436  -1.59275146 
H   -0.42969623   3.73108686   1.63222736 
*
