! EnGrad PBEh-3c
%output 
xyzfile=True 
end 
%scf 
maxiter 250 
end
%output
Print[P_Hirshfeld] = 1
end
% maxcore
4000
*xyz 0 1
C   -1.89390448   0.15342959  -0.15508588 
C   -1.69335843  -0.64659705  -1.26920792 
C   -0.95742353  -1.82463577  -1.13459983 
C   -0.38457683  -2.18321701   0.08622340 
C   -1.35661893  -0.22395311   1.06654958 
C   -0.58355043  -1.36806804   1.18889692 
H   -2.45972422   1.06797842  -0.23006745 
H   -2.10603615  -0.35071830  -2.23263801 
H   -0.82718983  -2.47360164  -1.99831186 
H   -0.14084662  -1.60949861   2.14088251 
H    0.21271036  -3.08916206   0.18237320 
Pd   1.48487724   1.29928372   0.07268368 
O    2.32464362   0.71739014  -1.66735862 
O    2.63991544  -0.38336045   0.16054321 
O    0.35405407   2.96496781  -0.09169270 
C    0.17036262   2.95018888   1.15379979 
O    0.69963934   2.02587191   1.81668904 
H   -1.52853273   0.38773036   1.93760959 
C    2.88280501  -0.23683445  -1.06367053 
H    3.57383977  -0.90278486  -1.59287300 
H   -0.43026942   3.72876607   1.63393895 
*
