! EnGrad PBEh-3c
%output 
xyzfile=True 
end 
%scf 
maxiter 250 
end
%output
Print[P_Hirshfeld] = 1
end
% maxcore
4000
*xyz 0 1
C   -1.89179656   0.15145799  -0.15020636 
C   -1.69213510  -0.64999622  -1.26797719 
C   -0.95765945  -1.82848399  -1.13920437 
C   -0.38755284  -2.18176679   0.08328626 
C   -1.35668173  -0.21796156   1.07328962 
C   -0.58833064  -1.36432074   1.18860036 
H   -2.45923114   1.06642825  -0.23252260 
H   -2.10589631  -0.35802543  -2.23226525 
H   -0.82874573  -2.47834262  -2.00330713 
H   -0.14013561  -1.61167023   2.13869191 
H    0.20787284  -3.08921252   0.17607817 
Pd   1.48173802   1.29807255   0.07183996 
O    2.32441337   0.71566996  -1.66704492 
O    2.64270475  -0.37896731   0.16130522 
O    0.35673638   2.96960566  -0.09072747 
C    0.17151937   2.95289868   1.15347209 
O    0.70056365   2.02654868   1.81651713 
H   -1.52661202   0.39450623   1.94386402 
C    2.88694893  -0.23496152  -1.06287530 
H    3.57476436  -0.90504719  -1.59357906 
H   -0.43228898   3.72805849   1.63621026 
*
