! EnGrad PBEh-3c
%output 
xyzfile=True 
end 
%scf 
maxiter 250 
end
%output
Print[P_Hirshfeld] = 1
end
% maxcore
4000
*xyz 0 1
C   -1.88678532   0.15079444  -0.16226353 
C   -1.60740852  -0.63102400  -1.28577955 
C   -0.85554601  -1.78067427  -1.16216444 
C   -0.32957520  -2.14428680   0.06148538 
C   -1.42821073  -0.16856056   1.19982345 
C   -0.57836583  -1.36727832   1.19633793 
H   -2.49720292   1.02461572  -0.27982985 
H   -2.01986634  -0.35462319  -2.24367628 
H   -0.69066554  -2.41104435  -2.02910455 
H   -0.14208752  -1.65485179   2.13477539 
H    0.25552928  -3.04343675   0.15204032 
Pd   1.41253368   1.24091548   0.04908379 
O    2.33095193   0.67954906  -1.72141830 
O    2.60555958  -0.42026034   0.11584650 
O    0.31378214   2.93117995  -0.09611793 
C    0.17770781   2.96017777   1.19604340 
O    0.71581441   2.10131075   1.85367384 
H   -1.70876346   0.41219855   2.13221687 
C    2.86401113  -0.29941984  -1.11346899 
H    3.51472064  -0.99635967  -1.62841125 
H   -0.44723632   3.76917716   1.63156603 
*
