! EnGrad PBEh-3c
%output 
xyzfile=True 
end 
%scf 
maxiter 250 
end
%output
Print[P_Hirshfeld] = 1
end
% maxcore
4000
*xyz 0 1
C   -1.88582448   0.14764821  -0.15913687 
C   -1.60284353  -0.62448263  -1.28186504 
C   -0.84487834  -1.77442814  -1.16309034 
C   -0.32659847  -2.13780580   0.06660213 
C   -1.41649789  -0.21175918   1.14064133 
C   -0.58085647  -1.36563792   1.19642706 
H   -2.50401461   1.02187333  -0.27892084 
H   -2.01130672  -0.35114524  -2.24391240 
H   -0.67315470  -2.39973523  -2.02962484 
H   -0.14775570  -1.65783305   2.13955526 
H    0.26368873  -3.03714346   0.15240539 
Pd   1.41251421   1.23297702   0.03305016 
O    2.32655911   0.67233313  -1.72332605 
O    2.61044459  -0.42169692   0.11614187 
O    0.31259753   2.93198353  -0.08623126 
C    0.17361532   2.97207719   1.18131471 
O    0.72057908   2.09894483   1.86205795 
H   -1.73512730   0.44142687   2.18851712 
C    2.84805875  -0.30218246  -1.11415625 
H    3.50469898  -1.00328079  -1.62993136 
H   -0.44445772   3.76689608   1.63381817 
*
