! EnGrad PBEh-3c
%output 
xyzfile=True 
end 
%scf 
maxiter 250 
end
%output
Print[P_Hirshfeld] = 1
end
% maxcore
4000
*xyz 0 1
C   -1.88003004   0.15226791  -0.12288659 
C   -1.61812516  -0.63326675  -1.27291277 
C   -0.87169296  -1.79498913  -1.16491259 
C   -0.34229570  -2.13987299   0.06715173 
C   -1.42318043  -0.15398655   1.21037339 
C   -0.59904047  -1.33470666   1.20522678 
H   -2.48958165   1.03353883  -0.28438335 
H   -2.03385823  -0.35861713  -2.24266076 
H   -0.71903600  -2.42885249  -2.02764445 
H   -0.13062752  -1.65385295   2.13019979 
H    0.24387321  -3.05390086   0.15307541 
Pd   1.41917835   1.25284550   0.06480981 
O    2.34002575   0.68393316  -1.71198696 
O    2.60135632  -0.41879031   0.11382412 
O    0.31550919   2.92812028  -0.08409267 
C    0.16786659   2.96959632   1.17432093 
O    0.72078552   2.08092282   1.86027013 
H   -1.66480649   0.36588349   2.04049674 
C    2.87350331  -0.27931709  -1.10661205 
H    3.53454341  -0.98739917  -1.62759422 
H   -0.44702525   3.76733101   1.62747339 
*
