! EnGrad PBEh-3c
%output 
xyzfile=True 
end 
%scf 
maxiter 250 
end
%output
Print[P_Hirshfeld] = 1
end
% maxcore
4000
*xyz 0 1
C   -1.89339117   0.16028744  -0.13466105 
C   -1.65063952  -0.62467942  -1.22877126 
C   -0.91021278  -1.79865341  -1.13979257 
C   -0.37333657  -2.12427806   0.10150377 
C   -1.37450539  -0.22580271   1.08162081 
C   -0.59091926  -1.35073959   1.20777561 
H   -2.47244732   1.04883943  -0.27132502 
H   -2.05251547  -0.35790992  -2.20159238 
H   -0.77037781  -2.45638283  -2.01920690 
H   -0.12584197  -1.63730158   2.12598380 
H    0.20923665  -3.03824462   0.17086891 
Pd   1.45683559   1.27167791   0.07043404 
O    2.33926977   0.70672598  -1.69231162 
O    2.60369508  -0.41254774   0.12835669 
O    0.32147576   2.93157320  -0.08042553 
C    0.16390943   2.95886319   1.17140886 
O    0.70952221   2.06104800   1.84645550 
H   -1.60124237   0.34050028   1.95427054 
C    2.88027617  -0.25955728  -1.09102610 
H    3.56240128  -0.95365890  -1.61469686 
H   -0.43940580   3.75671761   1.61992648 
*
