! EnGrad PBEh-3c
%output 
xyzfile=True 
end 
%scf 
maxiter 250 
end
%output
Print[P_Hirshfeld] = 1
end
% maxcore
4000
*xyz 0 1
C   -1.90231903   0.15993141  -0.17353026 
C   -1.65366606  -0.62530354  -1.23604994 
C   -0.91129249  -1.78875034  -1.12831917 
C   -0.37090184  -2.13247954   0.10017089 
C   -1.37071758  -0.24117275   1.06158679 
C   -0.57028668  -1.38428020   1.19807064 
H   -2.47443696   1.05036125  -0.26170899 
H   -2.04818175  -0.35407409  -2.18658919 
H   -0.76691904  -2.44806786  -2.01212803 
H   -0.13280796  -1.63210017   2.13231907 
H    0.20596471  -3.02337972   0.17718324 
Pd   1.46490373   1.26899110   0.05693270 
O    2.33338868   0.70864575  -1.69058070 
O    2.61011741  -0.41143345   0.13376343 
O    0.32295459   2.93535952  -0.08500801 
C    0.16647482   2.95471147   1.17706681 
O    0.70535797   2.06347947   1.84303946 
H   -1.60756846   0.35716216   1.97764158 
C    2.87122027  -0.26572250  -1.09002067 
H    3.55623319  -0.94800817  -1.61025317 
H   -0.43658991   3.75362874   1.62157219 
*
