! EnGrad PBEh-3c
%output 
xyzfile=True 
end 
%scf 
maxiter 250 
end
%output
Print[P_Hirshfeld] = 1
end
% maxcore
4000
*xyz 0 1
C   -1.89393164   0.15835551  -0.14529988 
C   -1.64796168  -0.63208176  -1.24714525 
C   -0.90694920  -1.79522947  -1.13842999 
C   -0.36700664  -2.13801992   0.08816585 
C   -1.37793279  -0.22569150   1.08557744 
C   -0.58543823  -1.35892731   1.20322370 
H   -2.47740621   1.05152443  -0.26673075 
H   -2.04964400  -0.35499522  -2.19980809 
H   -0.76429495  -2.44535165  -2.01115776 
H   -0.12920450  -1.63663612   2.13395732 
H    0.21251666  -3.03393072   0.17301820 
Pd   1.45705290   1.26948189   0.06214948 
O    2.33645670   0.70406251  -1.69233576 
O    2.60845846  -0.41210060   0.12942259 
O    0.32240169   2.93384035  -0.08205263 
C    0.16487846   2.95992983   1.16938477 
O    0.70996873   2.06082719   1.84830683 
H   -1.61049745   0.35331168   1.97625569 
C    2.87327796  -0.26408286  -1.09152558 
H    3.55558767  -0.95284234  -1.61295170 
H   -0.43863676   3.75577719   1.62258432 
*
