! EnGrad PBEh-3c
%output 
xyzfile=True 
end 
%scf 
maxiter 250 
end
%output
Print[P_Hirshfeld] = 1
end
% maxcore
4000
*xyz -1 1
Pt  -0.76211443  -0.75498980   0.43545578 
Cl  -0.12085134  -0.28884590   2.64039093 
Cl  -2.62326014  -2.02526640   1.12964467 
Cl  -1.30080430  -1.20441945  -1.80260591 
C    0.82979652   0.98161824  -0.51353714 
H    1.40754989   1.60952457   0.15661950 
H    1.22308565  -0.61062003   0.19064268 
H    1.40351631   0.75725134  -1.41319283 
H   -0.05691815   1.53574430  -0.82340391 
*
