! EnGrad PBEh-3c
%output 
xyzfile=True 
end 
%scf 
maxiter 250 
end
%output
Print[P_Hirshfeld] = 1
end
% maxcore
4000
*xyz -1 1
Pt  -0.66135612  -0.78869889   0.43982495 
Cl  -0.17537680  -0.35916451   2.65705975 
Cl  -2.58519289  -2.04371144   1.12056125 
Cl  -1.37696822  -1.16583932  -1.75869553 
C    0.90983663   0.88444021  -0.50984018 
H    1.41940337   1.65376269   0.13047909 
H    1.04121406  -0.34712214   0.18048074 
H    1.47061934   0.72791947  -1.39930589 
H   -0.04322229   1.43967046  -0.85951664 
*
