! EnGrad PBEh-3c
%output 
xyzfile=True 
end 
%scf 
maxiter 250 
end
%output
Print[P_Hirshfeld] = 1
end
% maxcore
4000
*xyz -1 1
Pt  -0.71968847  -0.76918357   0.43729549 
Cl  -0.14381020  -0.31845472   2.64740961 
Cl  -2.60723129  -2.03303299   1.12581994 
Cl  -1.33287439  -1.18817464  -1.78411671 
C    0.86349874   0.94069982  -0.51198048 
H    1.41254099   1.62815177   0.14561265 
H    1.14650559  -0.49966986   0.18636383 
H    1.43177115   0.74490067  -1.40734551 
H   -0.05115128   1.49529081  -0.83860978 
*
