! EnGrad PBEh-3c
%output 
xyzfile=True 
end 
%scf 
maxiter 250 
end
%output
Print[P_Hirshfeld] = 1
end
% maxcore
4000
*xyz -1 1
Pt  -0.67189056  -0.78873415   0.43875851 
Cl  -0.17157737  -0.35567781   2.65772019 
Cl  -2.57261404  -2.03530930   1.11771363 
Cl  -1.37092982  -1.16635219  -1.75950799 
C    0.89464477   0.88711724  -0.48986407 
H    1.41673357   1.63899663   0.13013721 
H    1.02893818  -0.32527406   0.16090242 
H    1.47464399   0.72297170  -1.40633194 
H   -0.02920735   1.42315077  -0.84842702 
*
