! EnGrad PBEh-3c
%output 
xyzfile=True 
end 
%scf 
maxiter 250 
end
%output
Print[P_Hirshfeld] = 1
end
% maxcore
4000
*xyz -1 1
Pt  -0.67217834  -0.79084023   0.43689797 
Cl  -0.16972700  -0.35465437   2.65746744 
Cl  -2.55744289  -2.02605763   1.11387620 
Cl  -1.36634438  -1.16500682  -1.75835627 
C    0.88978542   0.88072869  -0.48317436 
H    1.41427573   1.62700748   0.13163708 
H    1.00742219  -0.29447409   0.14555855 
H    1.47421618   0.71641720  -1.40256081 
H   -0.02156587   1.40758779  -0.84008903 
*
