! EnGrad PBEh-3c
%output 
xyzfile=True 
end 
%scf 
maxiter 250 
end
%output
Print[P_Hirshfeld] = 1
end
% maxcore
4000
*xyz -1 1
Pt  -0.67480921  -0.79189542   0.43558569 
Cl  -0.16623992  -0.35153652   2.65610571 
Cl  -2.54472424  -2.01695025   1.11064383 
Cl  -1.35944187  -1.16489743  -1.75892763 
C    0.88775262   0.87400903  -0.48040108 
H    1.41201698   1.61558552   0.13524471 
H    0.99278870  -0.27308993   0.13218218 
H    1.46989521   0.71120712  -1.39678932 
H   -0.01907390   1.39810119  -0.83223159 
*
