! EnGrad PBEh-3c
%output 
xyzfile=True 
end 
%scf 
maxiter 250 
end
%output
Print[P_Hirshfeld] = 1
end
% maxcore
4000
*xyz 1 1
Ir   0.47802420  -0.74307468   0.81941848 
C   -0.08779005  -2.75904278   1.52589259 
C    0.63497153  -2.08532134   2.55799363 
C    1.96778409  -2.21383242   0.67194155 
C    0.72845801  -2.84727817   0.38196619 
C    1.90774838  -1.81793230   2.03681529 
N   -1.00888080  -0.00589191  -0.42418121 
C   -2.42251530   0.02236323   0.00652522 
C   -2.89144170   1.40092069   0.42857685 
H   -3.91833083   1.39835235   0.79413136 
H   -2.81533074   2.11869799  -0.38868857 
H   -2.33058187   1.78114057   1.27669485 
C   -3.42360090  -0.55054528  -0.98341828 
H   -2.47242008  -0.60117670   0.89848058 
H   -4.40081867  -0.67188463  -0.52205210 
H   -3.57777961   0.08949958  -1.85456363 
H   -3.11233192  -1.53575426  -1.33454240 
C   -0.74030715   0.26768017  -1.64572845 
C    0.54509223   0.23286401  -2.27097413 
H   -1.54605728   0.55876622  -2.31517533 
C    1.75099792  -0.02084905  -1.67957579 
C    2.83977050  -0.01260394  -2.57303155 
S    0.74035422   0.15904638  -3.98067199 
C    2.41890721  -0.00839577  -3.87093330 
H    2.25552986   1.10390123  -0.80663075 
H    3.89224417  -0.03646768  -2.32748033 
H    3.03238656  -0.11660664  -4.75234559 
H   -0.92472757  -3.41984887   1.70847967 
H    0.29784343  -1.99448715   3.57884861 
H    2.75080597  -1.44316799   2.59800776 
O    1.80323128   1.81567829   0.66448597 
O    0.15371741   1.09425076   1.81168722 
C    0.86747013   2.05361076   1.48442339 
C    0.80444935   3.40469929   2.08976860 
H    0.84045869   4.16415356   1.31037848 
H    1.65962921   3.57846570   2.74425922 
H   -0.10486616   3.50875434   2.67336426 
H    2.88935206  -2.39318687   0.13935112 
H    0.51855617  -3.47547863  -0.47149197 
*
