! EnGrad PBEh-3c
%output 
xyzfile=True 
end 
%scf 
maxiter 250 
end
%output
Print[P_Hirshfeld] = 1
end
% maxcore
4000
*xyz 1 1
Ir   0.48662782  -0.70871397   0.83270960 
C   -0.08495960  -2.77366367   1.52525712 
C    0.62590587  -2.10183557   2.53765550 
C    1.97115913  -2.26844115   0.71092371 
C    0.74684844  -2.86452758   0.35967562 
C    1.94388580  -1.79532608   2.06467387 
N   -1.01087872  -0.02594916  -0.44498539 
C   -2.45391239   0.02177291   0.03483095 
C   -2.87892720   1.41902895   0.44987915 
H   -3.92128955   1.38327673   0.78887607 
H   -2.81590184   2.11862313  -0.37827049 
H   -2.31754535   1.77298179   1.28306806 
C   -3.41329915  -0.56104908  -1.00611079 
H   -2.46859100  -0.61203089   0.89487232 
H   -4.40076836  -0.66752049  -0.51598616 
H   -3.58001071   0.09581456  -1.85150260 
H   -3.11796989  -1.53225998  -1.34359249 
C   -0.75276155   0.28667617  -1.67350239 
C    0.54030779   0.19581120  -2.28635903 
H   -1.55568819   0.55820821  -2.31131372 
C    1.84256946   0.13769576  -1.55645394 
C    2.83125535  -0.05289253  -2.59306902 
S    0.71880351   0.16130157  -3.99703207 
C    2.41884270  -0.00898627  -3.87858208 
H    2.17451405   0.99416184  -0.82456747 
H    3.88516894  -0.04371690  -2.31420324 
H    3.02963750  -0.10721844  -4.75395985 
H   -0.94619606  -3.39730259   1.68568240 
H    0.27968809  -1.97908727   3.57224523 
H    2.73596579  -1.42966524   2.61081355 
O    1.79385287   1.85247777   0.66883522 
O    0.07219585   1.03671039   1.84909632 
C    1.01666704   2.03964067   1.38906202 
C    0.77755800   3.41312498   2.09828578 
H    0.84011773   4.16596342   1.30751586 
H    1.66320409   3.57496634   2.73677899 
H   -0.10272777   3.51892709   2.67348666 
H    2.89464033  -2.35632581   0.13646174 
H    0.53162396  -3.46194223  -0.48203168 
*
