! EnGrad PBEh-3c
%output 
xyzfile=True 
end 
%scf 
maxiter 250 
end
%output
Print[P_Hirshfeld] = 1
end
% maxcore
4000
*xyz 1 1
Ir   0.48245694  -0.71542594   0.83613672 
C   -0.08229231  -2.77349565   1.51849187 
C    0.63210187  -2.09690261   2.54504991 
C    1.97766579  -2.26570159   0.70812703 
C    0.74533349  -2.86188627   0.36954093 
C    1.92630192  -1.80290325   2.05594612 
N   -1.01175427  -0.02383061  -0.44636311 
C   -2.44835077   0.02376496   0.02708823 
C   -2.88321969   1.41531251   0.44741986 
H   -3.92027701   1.38424025   0.78853019 
H   -2.81562079   2.11928460  -0.37888579 
H   -2.31529927   1.77488967   1.28554341 
C   -3.41799534  -0.55734718  -0.99918394 
H   -2.46895064  -0.61379310   0.89815939 
H   -4.39825331  -0.66778004  -0.51798552 
H   -3.57966760   0.09621807  -1.85277653 
H   -3.11645848  -1.53560924  -1.34476683 
C   -0.74959905   0.28228650  -1.66687246 
C    0.55274418   0.20078396  -2.27419623 
H   -1.55946063   0.55998820  -2.31449621 
C    1.82653957   0.13511021  -1.58271051 
C    2.83545480  -0.04749374  -2.58210353 
S    0.72160859   0.15884933  -3.99209676 
C    2.41509860  -0.01084230  -3.87787747 
H    2.17541668   0.99049337  -0.82621746 
H    3.88454217  -0.04409868  -2.31669228 
H    3.03032974  -0.10755655  -4.75513352 
H   -0.94831981  -3.39622682   1.68603567 
H    0.28052038  -1.97896835   3.56898403 
H    2.74496760  -1.42559317   2.61633241 
O    1.85898727   1.83572854   0.61095522 
O    0.09415787   1.04924356   1.83604198 
C    0.92560742   2.05178172   1.46715285 
C    0.79004646   3.40738373   2.09097013 
H    0.83924431   4.16638679   1.30875904 
H    1.66084909   3.57554593   2.73653654 
H   -0.10764507   3.51746406   2.67570843 
H    2.89228447  -2.35618000   0.13667766 
H    0.53051584  -3.46428842  -0.48667423 
*
