! EnGrad PBEh-3c
%output 
xyzfile=True 
end 
%scf 
maxiter 250 
end
%output
Print[P_Hirshfeld] = 1
end
% maxcore
4000
*xyz 1 1
Ir   0.48152933  -0.71646459   0.84064401 
C   -0.07988143  -2.77578718   1.51310961 
C    0.63273786  -2.09668135   2.54616409 
C    1.98415478  -2.27310255   0.71440662 
C    0.74935855  -2.86365930   0.37218390 
C    1.92148196  -1.80338373   2.05726552 
N   -1.01419616  -0.02622215  -0.44994415 
C   -2.44844054   0.02419578   0.02541375 
C   -2.88401129   1.41460255   0.45038409 
H   -3.92012348   1.38151602   0.78824523 
H   -2.81522691   2.11986760  -0.37571259 
H   -2.31058795   1.77365982   1.29021568 
C   -3.42044307  -0.55586662  -0.99769164 
H   -2.46873699  -0.61826301   0.89959851 
H   -4.39656692  -0.66700107  -0.51868816 
H   -3.58018631   0.09875018  -1.85300786 
H   -3.11686099  -1.53692173  -1.34838233 
C   -0.74804903   0.28192639  -1.66800428 
C    0.56339070   0.19914459  -2.26429197 
H   -1.56472048   0.56135148  -2.31674423 
C    1.82762665   0.16411944  -1.58732559 
C    2.83603409  -0.04961095  -2.57737043 
S    0.72058355   0.15663373  -3.98909819 
C    2.41221806  -0.01345172  -3.87638324 
H    2.15847921   0.96381620  -0.83055082 
H    3.88306905  -0.04668571  -2.31570479 
H    3.03026179  -0.10569889  -4.75600501 
H   -0.95440594  -3.39055827   1.67927921 
H    0.27519300  -1.97558553   3.56391776 
H    2.74604814  -1.41967047   2.62418054 
O    1.85763667   1.84185460   0.61419201 
O    0.10448665   1.05966836   1.82943191 
C    0.92762969   2.03622747   1.46289580 
C    0.79287811   3.40515168   2.08843478 
H    0.83871945   4.16698145   1.30840956 
H    1.66020529   3.57558097   2.73401874 
H   -0.10962415   3.51848903   2.67649199 
H    2.89302263  -2.34734849   0.13789397 
H    0.53479503  -3.46279766  -0.49294485 
*
