! EnGrad PBEh-3c
%output 
xyzfile=True 
end 
%scf 
maxiter 250 
end
%output
Print[P_Hirshfeld] = 1
end
% maxcore
4000
*xyz 1 1
Ir   0.47287794  -0.72691915   0.86637894 
C   -0.07241504  -2.78672835   1.49383143 
C    0.62528815  -2.09977235   2.54347055 
C    2.01259498  -2.30968127   0.74999117 
C    0.77769154  -2.88119818   0.37222454 
C    1.91996284  -1.79717837   2.07947834 
N   -1.02692721  -0.03967356  -0.46561326 
C   -2.44883661   0.01983659   0.02278186 
C   -2.88097730   1.41146476   0.46967312 
H   -3.92122556   1.36551238   0.78888041 
H   -2.81285247   2.12303971  -0.35495633 
H   -2.28696892   1.76392262   1.31397023 
C   -3.42765686  -0.55118973  -0.99761312 
H   -2.46752068  -0.64027606   0.90143240 
H   -4.39256829  -0.66287862  -0.52019369 
H   -3.58375171   0.11289588  -1.85227416 
H   -3.12168911  -1.53786447  -1.36758076 
C   -0.74043312   0.28159323  -1.67720035 
C    0.60058819   0.20006851  -2.21804184 
H   -1.58602061   0.56666940  -2.32682267 
C    1.83393848   0.29590232  -1.63352098 
C    2.83528248  -0.05205663  -2.56276379 
S    0.71579789   0.14144269  -3.96587645 
C    2.40383522  -0.03177648  -3.86256140 
H    2.07012577   0.83135211  -0.83418530 
H    3.87895318  -0.06220739  -2.30810592 
H    3.02663128  -0.09564959  -4.75611575 
H   -0.98698659  -3.35525417   1.63638372 
H    0.24142306  -1.95513563   3.53839315 
H    2.73753124  -1.39057243   2.66215087 
O    1.86793467   1.86171879   0.61400895 
O    0.14886004   1.08820016   1.79479667 
C    0.93867563   2.00573974   1.45574412 
C    0.79919919   3.38325828   2.07380224 
H    0.83584547   4.16860442   1.30529102 
H    1.65929321   3.57568008   2.72040954 
H   -0.11310622   3.52275498   2.67566805 
H    2.90321874  -2.29657494   0.14482786 
H    0.56341010  -3.44886048  -0.52285018 
*
