! EnGrad PBEh-3c
%output 
xyzfile=True 
end 
%scf 
maxiter 250 
end
%output
Print[P_Hirshfeld] = 1
end
% maxcore
4000
*xyz 1 1
Ir   0.46544733  -0.74451233   0.87788098 
C   -0.07030633  -2.78882785   1.48343366 
C    0.62295928  -2.09826274   2.54340410 
C    2.02865836  -2.31314030   0.76207024 
C    0.79126000  -2.88889927   0.37870180 
C    1.91333992  -1.80096097   2.08687594 
N   -1.03092145  -0.04373208  -0.46733928 
C   -2.44208401   0.01405002   0.01753803 
C   -2.87771536   1.40496893   0.47688402 
H   -3.92071704   1.35948913   0.79119115 
H   -2.81094800   2.12490235  -0.34331247 
H   -2.27787016   1.75931662   1.32407237 
C   -3.43021488  -0.54800323  -0.99700880 
H   -2.46748383  -0.64868614   0.89978503 
H   -4.39341459  -0.66190343  -0.52099010 
H   -3.58533282   0.11914211  -1.85129116 
H   -3.12449114  -1.53556248  -1.37603863 
C   -0.73773901   0.27899351  -1.67168018 
C    0.59659090   0.21684249  -2.20858323 
H   -1.58740676   0.56786764  -2.33154572 
C    1.81435646   0.29367942  -1.72992833 
C    2.84270520  -0.03403155  -2.55895338 
S    0.71783088   0.12773696  -3.94649580 
C    2.40221698  -0.04532951  -3.85733901 
H    2.05054329   0.80924124  -0.77099153 
H    3.87999776  -0.06995393  -2.30526000 
H    3.02122752  -0.09339161  -4.75116330 
H   -1.00261912  -3.33410124   1.61323318 
H    0.22326304  -1.94417175   3.52697405 
H    2.73386047  -1.37514005   2.68107309 
O    1.84521729   1.86680576   0.64304488 
O    0.16948357   1.08939505   1.77868846 
C    0.96955147   2.01100428   1.42806779 
C    0.80027207   3.37774961   2.07015547 
H    0.83398683   4.16356770   1.30532505 
H    1.65773311   3.57482535   2.71338635 
H   -0.11008298   3.52095917   2.67139472 
H    2.90885127  -2.27278862   0.14917234 
H    0.57891262  -3.44098178  -0.53847872 
*
