! EnGrad PBEh-3c
%output 
xyzfile=True 
end 
%scf 
maxiter 250 
end
%output
Print[P_Hirshfeld] = 1
end
% maxcore
4000
*xyz 1 1
Ir   0.43666630  -0.78615275   0.92109137 
C   -0.06828149  -2.79834730   1.46036354 
C    0.60496879  -2.10665531   2.53418440 
C    2.06642172  -2.33572618   0.80590064 
C    0.84407863  -2.93010944   0.37681217 
C    1.93789053  -1.79862004   2.13505182 
N   -1.03256978  -0.07105777  -0.46242529 
C   -2.43971523  -0.00553310   0.02268064 
C   -2.85514900   1.39383117   0.50624087 
H   -3.91463292   1.33568684   0.79515026 
H   -2.80404027   2.12942105  -0.30231163 
H   -2.24924011   1.74180361   1.34791730 
C   -3.42799790  -0.54761413  -1.01175461 
H   -2.46456460  -0.67316458   0.88656803 
H   -4.39757636  -0.65831318  -0.51908452 
H   -3.58967228   0.13766829  -1.84544580 
H   -3.13628300  -1.52210482  -1.40317178 
C   -0.76208755   0.28880473  -1.66719030 
C    0.55765980   0.25983629  -2.25399664 
H   -1.57588687   0.56685550  -2.33529447 
C    1.82725257   0.40305932  -1.75557447 
C    2.87728293   0.01250082  -2.60699919 
S    0.70462985   0.07183327  -3.93108945 
C    2.39533027  -0.08990364  -3.86805784 
H    1.93788386   0.63687220  -0.65299593 
H    3.89629824  -0.09190381  -2.28588337 
H    2.99799040  -0.09093084  -4.74280765 
H   -1.06232518  -3.24061656   1.52850783 
H    0.16139933  -1.89613290   3.49516418 
H    2.70493092  -1.32496842   2.73103313 
O    1.89991396   1.87908737   0.63105273 
O    0.19152672   1.05109453   1.75231859 
C    1.00822653   2.03595772   1.40883813 
C    0.78863704   3.37423178   2.06575873 
H    0.82572124   4.14483761   1.30482934 
H    1.65455037   3.56866318   2.69327826 
H   -0.10060324   3.51175123   2.65678511 
H    2.92742113  -2.17942219   0.15547097 
H    0.63274658  -3.39893240  -0.58156417 
*
