! EnGrad PBEh-3c
%output 
xyzfile=True 
end 
%scf 
maxiter 250 
end
%output
Print[P_Hirshfeld] = 1
end
% maxcore
4000
*xyz 1 1
Ir   0.45190856  -0.76273455   0.90024810 
C   -0.06868961  -2.79394474   1.47187265 
C    0.61543585  -2.10237536   2.53820292 
C    2.04720178  -2.32772428   0.78549900 
C    0.81657472  -2.90862731   0.37809819 
C    1.92443630  -1.79950799   2.10910934 
N   -1.03246191  -0.05691469  -0.46801316 
C   -2.44194242   0.00482297   0.02051418 
C   -2.86676035   1.40078568   0.49159970 
H   -3.91869935   1.34767392   0.79238368 
H   -2.80797730   2.12728671  -0.32410824 
H   -2.26321883   1.75136871   1.33596859 
C   -3.42857513  -0.54812522  -1.00473828 
H   -2.46588801  -0.66079547   0.89404700 
H   -4.39539228  -0.66001119  -0.51972098 
H   -3.58744829   0.12803765  -1.84858478 
H   -3.13006034  -1.52960515  -1.38914304 
C   -0.74617795   0.28389738  -1.66973469 
C    0.56696941   0.23418540  -2.23040991 
H   -1.58332338   0.56775246  -2.33412228 
C    1.83177886   0.35497331  -1.74438878 
C    2.86126282  -0.01538112  -2.58365060 
S    0.71146694   0.10198702  -3.93572296 
C    2.40001275  -0.06681195  -3.86066402 
H    1.99321509   0.72330527  -0.71351490 
H    3.88547772  -0.08071306  -2.29580696 
H    3.01013145  -0.09104775  -4.74614023 
H   -1.03226813  -3.28972169   1.57315708 
H    0.19385843  -1.92099563   3.51152037 
H    2.72167692  -1.35027138   2.70605168 
O    1.87473439   1.87197573   0.63276170 
O    0.17419348   1.06573360   1.76819058 
C    0.99125825   2.02880434   1.42005110 
C    0.79394599   3.37556502   2.06799670 
H    0.83010030   4.15449648   1.30557098 
H    1.65593100   3.57168216   2.70331768 
H   -0.10550697   3.51757783   2.66465701 
H    2.91784893  -2.22727438   0.15105882 
H    0.60378101  -3.42146918  -0.56047309 
*
