! EnGrad PBEh-3c
%output 
xyzfile=True 
end 
%scf 
maxiter 250 
end
%output
Print[P_Hirshfeld] = 1
end
% maxcore
4000
*xyz 1 1
Ir   0.50361997  -0.77386410   0.66193780 
C   -0.02301024  -2.85661564   1.21870896 
C    0.29568095  -2.13119737   2.41983488 
C    2.12770664  -2.09576717   0.99956307 
C    1.09621600  -2.82991229   0.35148404 
C    1.63482816  -1.74397130   2.29650133 
N   -1.07162711  -0.08974700  -0.47579607 
C   -2.46453566  -0.08516428   0.00619120 
C   -2.84463169   1.20914437   0.70858903 
H   -3.87043770   1.19732227   1.08043902 
H   -2.74808591   2.05131426   0.02775426 
H   -2.24098538   1.36529483   1.59656871 
C   -3.53566179  -0.43337100  -1.01916070 
H   -2.51950263  -0.86147690   0.77107145 
H   -4.49866985  -0.58490561  -0.53461838 
H   -3.68172340   0.35865411  -1.75423012 
H   -3.29309587  -1.35765534  -1.54302757 
C   -0.83295617   0.22573782  -1.69432393 
C    0.45991504   0.22008328  -2.29493523 
H   -1.64434308   0.51729273  -2.35408735 
C    1.60041310  -0.12527975  -1.62331177 
C    2.74297225  -0.15224879  -2.45255491 
S    0.76769798   0.26892069  -3.97770290 
C    2.42858286   0.03197609  -3.77049595 
H    2.24421386   1.23642509  -0.82118624 
H    3.77736612  -0.26623922  -2.15882918 
H    3.09165179  -0.03539394  -4.61982519 
H   -0.81330516  -3.58981313   1.15718770 
H   -0.31369511  -2.07397763   3.30879737 
H    2.24611758  -1.33755487   3.08555030 
O    2.00255194   2.04466119   0.37688234 
O    0.37419098   1.16743243   1.49411544 
C    1.04339568   2.16233057   1.20815863 
C    0.91937640   3.46492851   1.90287232 
H    0.88110329   4.27101189   1.17097714 
H    1.78520936   3.66146913   2.53677428 
H    0.03039259   3.50078621   2.52451544 
H    3.16806899  -2.08707685   0.72287941 
H    1.17499199  -3.44353011  -0.53326442 
*
