! EnGrad PBEh-3c
%output 
xyzfile=True 
end 
%scf 
maxiter 250 
end
%output
Print[P_Hirshfeld] = 1
end
% maxcore
4000
*xyz 1 1
Ir   0.55183325  -0.75596523   0.62983237 
C   -0.01645869  -2.87322553   1.24446645 
C    0.28941888  -2.13808123   2.40464145 
C    2.13917337  -2.13047379   1.02996370 
C    1.07176016  -2.84086086   0.35307977 
C    1.67631124  -1.73564931   2.27943721 
N   -1.07880693  -0.09865929  -0.49258931 
C   -2.49010488  -0.08686041   0.02638534 
C   -2.83970283   1.22233928   0.70985366 
H   -3.87310591   1.19499069   1.06154107 
H   -2.74848596   2.06039484   0.01889258 
H   -2.23314286   1.38543949   1.58775650 
C   -3.52459948  -0.44007186  -1.02994700 
H   -2.51102340  -0.86221233   0.77578966 
H   -4.49005864  -0.58558279  -0.53077453 
H   -3.68111524   0.35161153  -1.76035699 
H   -3.28867096  -1.36540490  -1.54311120 
C   -0.84324643   0.23788895  -1.71114433 
C    0.47239719   0.19309810  -2.29631904 
H   -1.65517670   0.52039431  -2.35177324 
C    1.61889633  -0.06928662  -1.52164669 
C    2.74758339  -0.15614798  -2.45250133 
S    0.75117362   0.27762713  -3.99642317 
C    2.41797616   0.02344227  -3.77504461 
H    2.16517314   1.22624182  -0.72555079 
H    3.77907072  -0.26686712  -2.15370268 
H    3.08879809  -0.03085451  -4.62467746 
H   -0.83928570  -3.56189865   1.15524350 
H   -0.30082325  -2.06550344   3.31341276 
H    2.26182989  -1.32047460   3.07309953 
O    2.03778366   2.05836085   0.30432657 
O    0.32534151   1.14300915   1.51785876 
C    1.10679534   2.11033655   1.17272923 
C    0.90935549   3.46765614   1.90816924 
H    0.87921040   4.26919578   1.17502097 
H    1.78205286   3.65417403   2.53958885 
H    0.02169321   3.50074791   2.53122956 
H    3.16143686  -2.07817835   0.69753894 
H    1.15801182  -3.43441422  -0.54269987 
*
