! EnGrad PBEh-3c
%output 
xyzfile=True 
end 
%scf 
maxiter 250 
end
%output
Print[P_Hirshfeld] = 1
end
% maxcore
4000
*xyz 1 1
Ir   0.58978234  -0.75203528   0.59645124 
C   -0.01546469  -2.88994133   1.26893309 
C    0.31957497  -2.12493688   2.41200753 
C    2.14834403  -2.18163891   1.01745716 
C    1.06622607  -2.84689922   0.35537906 
C    1.68202043  -1.73388948   2.27284302 
N   -1.08065956  -0.10429255  -0.50411757 
C   -2.48406346  -0.08146796   0.02356773 
C   -2.84195182   1.23765665   0.69909066 
H   -3.87700490   1.20009709   1.03675403 
H   -2.74986742   2.07046832   0.00191090 
H   -2.22468463   1.41862313   1.57565612 
C   -3.52375257  -0.44816279  -1.02766064 
H   -2.50315821  -0.86327435   0.79074254 
H   -4.47722737  -0.58919716  -0.53159815 
H   -3.67710472   0.33850140  -1.77014018 
H   -3.27785302  -1.38052196  -1.54080015 
C   -0.83899951   0.23728477  -1.71915705 
C    0.48741010   0.17723206  -2.26803009 
H   -1.67142344   0.52976586  -2.35812498 
C    1.62100455  -0.01415975  -1.49714993 
C    2.73427931  -0.15026176  -2.42804465 
S    0.74262140   0.27465538  -3.98251264 
C    2.41116386   0.00999809  -3.76151026 
H    2.06831995   1.22813954  -0.58744096 
H    3.78207277  -0.26260027  -2.15476695 
H    3.07997879  -0.02795036  -4.62534546 
H   -0.88159781  -3.52636369   1.16328895 
H   -0.27239182  -2.05100728   3.31469562 
H    2.29520269  -1.29771420   3.05217662 
O    2.03481845   2.03764136   0.24825827 
O    0.35614523   1.15587543   1.49564244 
C    1.11077082   2.08597834   1.17305261 
C    0.92099531   3.42863789   1.89667042 
H    0.87634331   4.26240584   1.18109126 
H    1.77395853   3.64590771   2.54671649 
H    0.01472184   3.49071262   2.53352686 
H    3.15496724  -2.07793085   0.65594945 
H    1.12468746  -3.42544613  -0.55251309 
*
