! EnGrad PBEh-3c
%output 
xyzfile=True 
end 
%scf 
maxiter 250 
end
%output
Print[P_Hirshfeld] = 1
end
% maxcore
4000
*xyz 1 1
Ir   0.60742588  -0.75723250   0.58153636 
C   -0.01861315  -2.89516394   1.28465616 
C    0.34008885  -2.11948426   2.41857665 
C    2.15637038  -2.20758323   1.00380318 
C    1.05844975  -2.85489126   0.35599595 
C    1.69692096  -1.73285605   2.26332363 
N   -1.07674029  -0.10562441  -0.51042270 
C   -2.47339535  -0.07982109   0.02119925 
C   -2.84118458   1.24772746   0.68735504 
H   -3.88024889   1.20722642   1.01794519 
H   -2.75173437   2.07794806  -0.01462942 
H   -2.22240746   1.44584497   1.56267445 
C   -3.51832889  -0.45542738  -1.02709727 
H   -2.49764980  -0.85684574   0.79926027 
H   -4.47176948  -0.59382448  -0.53103091 
H   -3.67302344   0.32538643  -1.77701888 
H   -3.26901760  -1.39093275  -1.53561762 
C   -0.84008949   0.23389640  -1.71887564 
C    0.48645637   0.17895560  -2.25490099 
H   -1.67513484   0.53574189  -2.36205675 
C    1.61979559   0.00490452  -1.49781814 
C    2.73088034  -0.13980291  -2.41290096 
S    0.74056448   0.26679691  -3.96298388 
C    2.40799077   0.00091988  -3.74725470 
H    2.00544074   1.23647228  -0.48733413 
H    3.78153569  -0.25656247  -2.15631166 
H    3.06988720  -0.02802261  -4.62021278 
H   -0.90970984  -3.49617823   1.17645543 
H   -0.24729078  -2.03689013   3.31936656 
H    2.32176267  -1.28433862   3.02908038 
O    2.01913072   2.02024257   0.22880416 
O    0.38282011   1.15338790   1.47686655 
C    1.10828022   2.08785114   1.17094224 
C    0.92728816   3.40955622   1.89223959 
H    0.87544481   4.24970675   1.18869669 
H    1.76709244   3.63753041   2.55223531 
H    0.01735112   3.47693041   2.52841436 
H    3.14827324  -2.08451343   0.62126645 
H    1.09494738  -3.42177211  -0.56048567 
*
