! EnGrad PBEh-3c
%output 
xyzfile=True 
end 
%scf 
maxiter 250 
end
%output
Print[P_Hirshfeld] = 1
end
% maxcore
4000
*xyz 1 1
Ir   0.62922977  -0.76304261   0.56577449 
C   -0.01925430  -2.89688637   1.30384584 
C    0.35685127  -2.11910247   2.42017677 
C    2.16289009  -2.23214954   0.99738515 
C    1.04434030  -2.86730351   0.35611730 
C    1.72530656  -1.73182218   2.24554596 
N   -1.07344177  -0.10964872  -0.51247665 
C   -2.46698218  -0.07921458   0.02324257 
C   -2.83798691   1.25908056   0.67441940 
H   -3.88291293   1.21486623   0.99599122 
H   -2.75385549   2.08647895  -0.03387928 
H   -2.22066576   1.47676886   1.54650967 
C   -3.50887925  -0.46422692  -1.02860396 
H   -2.49035560  -0.84741073   0.80665853 
H   -4.46599517  -0.59924775  -0.52937377 
H   -3.66833018   0.30987707  -1.78438392 
H   -3.25939637  -1.40206515  -1.52928620 
C   -0.84539401   0.23420622  -1.72462573 
C    0.48297422   0.18191260  -2.24726452 
H   -1.67608098   0.54100463  -2.36420408 
C    1.61914427   0.02101222  -1.48311368 
C    2.73243975  -0.12780847  -2.39985047 
S    0.73673582   0.25849977  -3.94661715 
C    2.40295264  -0.00815010  -3.73398328 
H    1.93428954   1.23657924  -0.38274212 
H    3.78045124  -0.24975525  -2.15545937 
H    3.05765928  -0.02846491  -4.61216911 
H   -0.94086082  -3.45957237   1.19142550 
H   -0.21960461  -2.01927536   3.32689175 
H    2.35097294  -1.26908141   3.00131554 
O    2.00712195   2.01923994   0.21447696 
O    0.39397362   1.13522567   1.46604562 
C    1.12028542   2.08861472   1.15816196 
C    0.92874936   3.39846645   1.89248758 
H    0.87509463   4.23477373   1.19676099 
H    1.76074814   3.62647461   2.55809393 
H    0.02178929   3.45967993   2.52129084 
H    3.14222318  -2.09203851   0.58050492 
H    1.06135714  -3.41787893  -0.57029126 
*
