! EnGrad PBEh-3c
%output 
xyzfile=True 
end 
%scf 
maxiter 250 
end
%output
Print[P_Hirshfeld] = 1
end
% maxcore
4000
*xyz 1 1
Ir   0.64967889  -0.79039183   0.55398188 
C   -0.02379728  -2.87911240   1.32353430 
C    0.39492767  -2.12019066   2.42447845 
C    2.17006981  -2.25760441   0.96532911 
C    1.02384152  -2.89740065   0.35461876 
C    1.77858239  -1.73699878   2.20580322 
N   -1.06332007  -0.11939325  -0.50736426 
C   -2.45087948  -0.07734248   0.02566272 
C   -2.82870202   1.27608844   0.64313023 
H   -3.87831866   1.23218619   0.95565599 
H   -2.75680191   2.09759987  -0.07399166 
H   -2.22315747   1.53478734   1.51031217 
C   -3.49042046  -0.48151845  -1.02565437 
H   -2.47549828  -0.82183895   0.81658577 
H   -4.45431301  -0.61215941  -0.52752334 
H   -3.65607034   0.27659752  -1.79484818 
H   -3.24030571  -1.42197467  -1.51451144 
C   -0.85744027   0.23374960  -1.72137908 
C    0.46558798   0.21014125  -2.24051098 
H   -1.66881439   0.54847612  -2.36776364 
C    1.59711303  -0.00268683  -1.47294064 
C    2.73453849  -0.09747808  -2.37239235 
S    0.73327997   0.23555081  -3.92178995 
C    2.39128220  -0.01601412  -3.70117480 
H    1.82499608   1.17284133  -0.26249421 
H    3.77927178  -0.23462022  -2.13939289 
H    3.02952147  -0.03488209  -4.57844192 
H   -0.99073233  -3.37490432   1.22444624 
H   -0.16497027  -1.97409526   3.33964531 
H    2.40458856  -1.24018493   2.93583790 
O    1.98796531   2.09148196   0.25185585 
O    0.42199591   1.09420641   1.44177583 
C    1.10710693   2.11263136   1.17118473 
C    0.92450135   3.38775267   1.90262635 
H    0.87789857   4.20899842   1.20277022 
H    1.75814527   3.59885454   2.56924367 
H    0.03421612   3.40954673   2.49951641 
H    3.13463094  -2.11781793   0.50086785 
H    0.99748184  -3.41627812  -0.58879741 
*
