! EnGrad PBEh-3c
%output 
xyzfile=True 
end 
%scf 
maxiter 250 
end
%output
Print[P_Hirshfeld] = 1
end
% maxcore
4000
*xyz 1 1
Ir   0.64765726  -0.81407020   0.56581635 
C   -0.03033457  -2.85433838   1.32742364 
C    0.43689105  -2.11059798   2.42976603 
C    2.17118721  -2.27366547   0.92056978 
C    1.01167702  -2.92260925   0.35271026 
C    1.81080599  -1.74793707   2.17776927 
N   -1.06047593  -0.12975322  -0.49512010 
C   -2.44117703  -0.07039781   0.02412224 
C   -2.82212743   1.29069282   0.61413931 
H   -3.86851666   1.24742185   0.92364022 
H   -2.75753922   2.10248542  -0.11174626 
H   -2.22668562   1.57978137   1.47820791 
C   -3.47790596  -0.49588110  -1.01892967 
H   -2.46417779  -0.80107359   0.82870300 
H   -4.44174031  -0.62425774  -0.52694289 
H   -3.64328362   0.24818806  -1.80095277 
H   -3.22326179  -1.43966531  -1.50052175 
C   -0.85833877   0.23991881  -1.71287627 
C    0.45828808   0.23470790  -2.23042829 
H   -1.66249047   0.55309988  -2.36739447 
C    1.58308527  -0.00629529  -1.46573716 
C    2.73239411  -0.07493593  -2.34892519 
S    0.72550283   0.21177544  -3.91463070 
C    2.38088511  -0.01691535  -3.67551504 
H    1.77209522   1.12055618  -0.21329519 
H    3.78188025  -0.21669623  -2.11679500 
H    3.01086337  -0.04516880  -4.54992320 
H   -1.02213125  -3.29739559   1.25324082 
H   -0.11648340  -1.92998004   3.34621274 
H    2.45098511  -1.21841776   2.87676897 
O    1.96149918   2.09492571   0.26910863 
O    0.43534721   1.08117665   1.44116608 
C    1.09855060   2.11080706   1.18781640 
C    0.91586050   3.39247624   1.92557954 
H    0.87901868   4.19504444   1.20397984 
H    1.75879462   3.57422598   2.58151770 
H    0.01949563   3.37186087   2.50134169 
H    3.12720351  -2.14409589   0.43447590 
H    0.94569948  -3.42011245  -0.60267962 
*
