! EnGrad PBEh-3c
%output 
xyzfile=True 
end 
%scf 
maxiter 250 
end
%output
Print[P_Hirshfeld] = 1
end
% maxcore
4000
*xyz 1 1
Sc   1.60574807  -1.41561281  -1.56890463 
C    0.46648987  -0.71294544   0.23838021 
N   -0.46503236  -1.40397812   0.92126985 
C   -0.88476654  -0.70291865   2.01694599 
C   -0.22460354   0.47882787   1.99394283 
N    0.62158714   0.43952887   0.92106402 
C    1.51011255   1.53322474   0.57011781 
H    1.86291989   2.06280256   1.45228575 
H    1.00375071   2.24893453  -0.07305535 
H    2.38961637   1.15342805   0.05499632 
C   -0.98343084  -2.72150230   0.58951818 
H   -0.42800857  -3.14704335  -0.24246168 
H   -2.03165624  -2.65493782   0.30692765 
H   -0.87775395  -3.38566595   1.44421796 
H   -1.61028682  -1.08364311   2.71586988 
H   -0.29053298   1.31085328   2.67419499 
C   -0.36351303   1.62601225  -2.77635276 
H   -0.92392319   1.18950470  -3.60204983 
H   -0.53184253   2.70614790  -2.81000364 
H   -0.80104919   1.25308402  -1.84889738 
H    0.95619710   1.22591493  -2.97801423 
*
