! EnGrad PBEh-3c
%output 
xyzfile=True 
end 
%scf 
maxiter 250 
end
%output
Print[P_Hirshfeld] = 1
end
% maxcore
4000
*xyz 1 1
Sc   1.64299890  -1.41742100  -1.53107195 
C    0.46028983  -0.70263486   0.23047591 
N   -0.46774392  -1.39736940   0.92674777 
C   -0.87963907  -0.69970610   2.02072592 
C   -0.21052105   0.45901362   2.02715436 
N    0.59875221   0.45006541   0.93334814 
C    1.50647822   1.55146506   0.56050263 
H    1.81894871   2.08780035   1.45801561 
H    1.00132017   2.23709238  -0.09696310 
H    2.39440391   1.16474053   0.08698683 
C   -0.98675083  -2.71266662   0.58442015 
H   -0.45579114  -3.12008579  -0.26998932 
H   -2.04442879  -2.64979944   0.33184653 
H   -0.85761544  -3.39052716   1.42303461 
H   -1.58954061  -1.09950941   2.73382276 
H   -0.26660159   1.29541418   2.70194912 
C   -0.18167149   1.55748526  -2.84280005 
H   -0.96050283   1.26111489  -3.60320885 
H   -0.36705949   2.69017437  -2.83878898 
H   -0.78455225   1.29530319  -1.85245204 
H    0.62932139   1.14094570  -2.98338983 
*
