! EnGrad PBEh-3c
%output 
xyzfile=True 
end 
%scf 
maxiter 250 
end
%output
Print[P_Hirshfeld] = 1
end
% maxcore
4000
*xyz 1 1
Sc   1.69948733  -1.40756107  -1.47720842 
C    0.44325266  -0.67244871   0.24355262 
N   -0.47195698  -1.38749767   0.92525305 
C   -0.86781347  -0.71555227   2.04443477 
C   -0.18428663   0.44728967   2.06049806 
N    0.59774336   0.46723863   0.93935264 
C    1.47420117   1.56344833   0.57604403 
H    1.73134320   2.13407442   1.46555466 
H    0.99371230   2.22643296  -0.15202840 
H    2.40698629   1.18189632   0.14682431 
C   -0.99421993  -2.69693402   0.57373618 
H   -0.50298980  -3.06923329  -0.32015237 
H   -2.06295593  -2.63855230   0.37895793 
H   -0.81640807  -3.40038815   1.38576036 
H   -1.55840674  -1.13053353   2.76518569 
H   -0.22042925   1.27070769   2.76541399 
C   -0.38378436   1.60257590  -2.83620207 
H   -1.02819280   1.37789852  -3.63221851 
H   -0.00239320   2.64531271  -2.90170767 
H   -0.71329403   1.36727747  -1.90055405 
H    0.46135663   0.83802031  -3.04957261 
*
