! EnGrad PBEh-3c
%output 
xyzfile=True 
end 
%scf 
maxiter 250 
end
%output
Print[P_Hirshfeld] = 1
end
% maxcore
4000
*xyz 1 1
Sc   1.68456539  -1.41252658  -1.49134268 
C    0.44730299  -0.68075105   0.24129907 
N   -0.46971901  -1.39113721   0.92474923 
C   -0.87455517  -0.71151526   2.03677466 
C   -0.19077358   0.44925692   2.05287536 
N    0.59806566   0.46391951   0.93455103 
C    1.48326829   1.55981830   0.57304104 
H    1.75787538   2.11938931   1.46308188 
H    0.99509513   2.23017562  -0.13671905 
H    2.40476443   1.17594408   0.12728004 
C   -0.99250537  -2.70091141   0.57736642 
H   -0.48910778  -3.08441720  -0.30536556 
H   -2.05772766  -2.64203793   0.36486398 
H   -0.82921894  -3.39765101   1.39704072 
H   -1.56671640  -1.12073283   2.75542267 
H   -0.23428992   1.27867363   2.74609362 
C   -0.35923897   1.60730953  -2.82947205 
H   -0.99496302   1.34518130  -3.61343724 
H   -0.10903737   2.64983136  -2.88310266 
H   -0.72228497   1.34846860  -1.90111288 
H    0.51981284   0.91632871  -3.03310476 
*
