! EnGrad PBEh-3c
%output 
xyzfile=True 
end 
%scf 
maxiter 250 
end
%output
Print[P_Hirshfeld] = 1
end
% maxcore
4000
*xyz -1 1
Pd  -2.11848717  -1.66278421   0.62039607 
Cl  -3.47188515  -3.26231500  -0.18087280 
Cl  -0.67989137  -4.50828863   1.26853730 
Cl  -4.00349038  -0.28088590   0.81340400 
N   -0.97847344  -0.10576139   1.42995661 
C   -1.28221093   0.45411239   2.58373190 
C   -0.77119152   1.68580831   3.01090652 
C    0.08759695   2.35994702   2.16851151 
C   -0.06738806   0.50004678   0.61649243 
C    0.45391585   1.78528549   0.95136749 
H    0.48755987   3.32136306   2.45874692 
H   -1.96659019  -0.08731997   3.19982024 
H   -1.07863653   2.09714618   3.95537162 
C    0.33831640  -0.17995103  -0.60392141 
C    1.34916610   2.44294745   0.05073074 
C    1.69284774   1.85532471  -1.11829359 
C    1.22254319   0.55107280  -1.48009828 
H    1.73817128   3.40936249   0.31390492 
H    2.35898567   2.36350623  -1.79711557 
C   -0.11697027  -1.54561316  -0.88463447 
C    1.66614915  -0.05744784  -2.65677730 
C    0.35398860  -2.01265066  -2.11829878 
C    1.23282045  -1.31467503  -2.98424950 
H    2.32560778   0.47405015  -3.32226077 
H    1.59633352  -1.79411846  -3.88284430 
H   -0.39728487  -3.49965314   0.03706134 
H    0.02265428  -2.98922807  -2.44833061 
*
