! EnGrad PBEh-3c
%output 
xyzfile=True 
end 
%scf 
maxiter 250 
end
%output
Print[P_Hirshfeld] = 1
end
% maxcore
4000
*xyz -1 1
Pd  -2.06662998  -1.57136206   0.49830549 
Cl  -3.52165679  -3.24733781  -0.17740259 
Cl  -0.62802513  -4.25116118   1.09031002 
Cl  -3.92813999  -0.21191378   0.77291296 
N   -0.96321083  -0.12769753   1.40997918 
C   -1.28098756   0.42244685   2.57964155 
C   -0.75896253   1.63818231   3.00496682 
C    0.08071482   2.31894450   2.17062778 
C   -0.05901847   0.46766944   0.60646050 
C    0.45433509   1.74585592   0.94675873 
H    0.47956202   3.30106236   2.44420585 
H   -1.98324482  -0.11753987   3.20423874 
H   -1.06277475   2.05572666   3.96436241 
C    0.35403669  -0.22026446  -0.58992363 
C    1.32054671   2.42089673   0.04356328 
C    1.65714244   1.83429406  -1.11874133 
C    1.20219427   0.51754620  -1.45664195 
H    1.70672488   3.40800510   0.31350105 
H    2.32179914   2.35769191  -1.81114742 
C   -0.10034898  -1.54258799  -0.85490636 
C    1.64078768  -0.06084062  -2.66203398 
C    0.36946368  -2.04700830  -2.09075311 
C    1.21829277  -1.33313557  -2.95806862 
H    2.31564455   0.49445082  -3.31891710 
H    1.58381264  -1.79166921  -3.87898087 
H   -0.43600685  -3.42345482   0.30707769 
H    0.07225311  -3.03548188  -2.42883573 
*
