! EnGrad PBEh-3c
%output 
xyzfile=True 
end 
%scf 
maxiter 250 
end
%output
Print[P_Hirshfeld] = 1
end
% maxcore
4000
*xyz -1 1
Pd  -2.02772711  -1.50822984   0.40369077 
Cl  -3.51874110  -3.23818487  -0.19180187 
Cl  -0.60834992  -4.28654981   1.11814384 
Cl  -3.90839124  -0.18934931   0.78874093 
N   -0.96232988  -0.12953254   1.40296863 
C   -1.28447943   0.40468006   2.57183743 
C   -0.75904406   1.61920810   3.00775192 
C    0.08385549   2.30637123   2.16690330 
C   -0.05009557   0.46763243   0.60793177 
C    0.45636748   1.73680841   0.94954274 
H    0.47325853   3.28635467   2.43475417 
H   -1.99251825  -0.12603082   3.19606299 
H   -1.05623848   2.03652851   3.96241628 
C    0.36356380  -0.21410930  -0.58670691 
C    1.31430151   2.41741474   0.04316014 
C    1.65115479   1.82834334  -1.12152887 
C    1.21063101   0.51295830  -1.45794704 
H    1.69158988   3.39950030   0.31163714 
H    2.30294496   2.34750773  -1.81212743 
C   -0.12925170  -1.52550480  -0.85287044 
C    1.63108131  -0.06456038  -2.65947082 
C    0.36496123  -2.05572940  -2.06734544 
C    1.21524543  -1.34348234  -2.94415644 
H    2.30273527   0.49404735  -3.30827184 
H    1.56900043  -1.79263853  -3.86826838 
H   -0.43004509  -3.33249961   0.33239201 
H    0.08191691  -3.04946717  -2.41291275 
*
