! EnGrad PBEh-3c
%output 
xyzfile=True 
end 
%scf 
maxiter 250 
end
%output
Print[P_Hirshfeld] = 1
end
% maxcore
4000
*xyz -1 1
Pd  -2.04037340  -1.49582583   0.33579169 
Cl  -3.50884470  -3.20468801  -0.22687500 
Cl  -0.56355706  -4.27626822   1.14802227 
Cl  -3.87658912  -0.15966378   0.79754572 
N   -0.94993156  -0.13231238   1.39748325 
C   -1.28628327   0.38391924   2.56315899 
C   -0.75719375   1.59818761   3.00798940 
C    0.08324310   2.28883190   2.17250821 
C   -0.03351123   0.46470010   0.61714018 
C    0.46091065   1.72954667   0.95571741 
H    0.46300380   3.26329307   2.42603403 
H   -2.00476387  -0.14470058   3.17593748 
H   -1.04879264   2.00640140   3.96125270 
C    0.36993864  -0.22117750  -0.57636562 
C    1.30904516   2.40880234   0.04394600 
C    1.64549566   1.81989541  -1.12149585 
C    1.21234394   0.50240295  -1.44908859 
H    1.66992828   3.38807071   0.30545589 
H    2.27883160   2.33510754  -1.82252088 
C   -0.12517067  -1.53553761  -0.86046893 
C    1.62033650  -0.08271108  -2.65009722 
C    0.36289838  -2.07400065  -2.04901292 
C    1.20887587  -1.35802301  -2.92657996 
H    2.27643902   0.48480530  -3.29893187 
H    1.54595943  -1.80439022  -3.85803894 
H   -0.42191396  -3.12033329   0.33237392 
H    0.09529355  -3.06822300  -2.38372474 
*
