! EnGrad PBEh-3c
%output 
xyzfile=True 
end 
%scf 
maxiter 250 
end
%output
Print[P_Hirshfeld] = 1
end
% maxcore
4000
*xyz -1 1
Pd  -2.09869639  -1.59466574   0.65786861 
Cl  -3.30520611  -3.33628514  -0.33481001 
Cl  -0.37729152  -4.93087200   1.15027494 
Cl  -4.10760162  -0.69307106   1.24430681 
N   -0.99361871   0.01188138   1.40082886 
C   -1.32892676   0.57417698   2.54931673 
C   -0.81668056   1.80373236   2.96966139 
C    0.09342780   2.43844793   2.16056841 
C   -0.08595500   0.59489387   0.59054321 
C    0.47654227   1.83735199   0.95359766 
H    0.51301427   3.39128930   2.46251107 
H   -2.01052790   0.01262199   3.17493796 
H   -1.12938386   2.23070106   3.91164310 
C    0.32153999  -0.09536972  -0.59876369 
C    1.41794792   2.45018057   0.06905058 
C    1.76889253   1.84081135  -1.08668874 
C    1.24830920   0.55559186  -1.44434047 
H    1.84094057   3.41214801   0.33139505 
H    2.47752909   2.33031948  -1.74547422 
C   -0.17316093  -1.37999900  -0.91088898 
C    1.67039639  -0.07974161  -2.62063917 
C    0.23322914  -1.94129151  -2.10835058 
C    1.19161100  -1.33411215  -2.92556580 
H    2.37524078   0.40568953  -3.28498182 
H    1.53454315  -1.80800743  -3.83218349 
H   -0.54024806  -3.82162155  -0.28668628 
H   -0.19587059  -2.87480075  -2.44713504 
*
