! EnGrad PBEh-3c
%output 
xyzfile=True 
end 
%scf 
maxiter 250 
end
%output
Print[P_Hirshfeld] = 1
end
% maxcore
4000
*xyz -1 1
Pd  -2.02941038  -1.60088070   0.54970317 
Cl  -3.29133541  -3.31428594  -0.31423737 
Cl  -0.42726496  -4.78124524   1.02495482 
Cl  -4.11286317  -0.63049696   1.22487297 
N   -1.01983270  -0.01846040   1.40918737 
C   -1.31880368   0.55696325   2.55743956 
C   -0.80493601   1.78113469   2.96830765 
C    0.08339686   2.42142092   2.16127038 
C   -0.08032934   0.58234984   0.60715483 
C    0.48283089   1.84435882   0.94789849 
H    0.51270495   3.38324252   2.45564338 
H   -2.01140279   0.00774986   3.17066603 
H   -1.12449417   2.21332893   3.91762318 
C    0.33562342  -0.10447621  -0.60540603 
C    1.40895291   2.44220224   0.06059262 
C    1.75673306   1.84709872  -1.08086658 
C    1.25596094   0.56843386  -1.45655731 
H    1.82836557   3.41221832   0.33153810 
H    2.46377643   2.33026796  -1.75416414 
C   -0.24337619  -1.41172021  -0.85062673 
C    1.67099625  -0.09030992  -2.61975474 
C    0.24602532  -1.95623729  -2.10300191 
C    1.19203751  -1.30558904  -2.93365542 
H    2.37215383   0.41657916  -3.28495304 
H    1.54083286  -1.81503632  -3.84582782 
H   -0.51034228  -3.88253402  -0.09327436 
H   -0.17457020  -2.89390889  -2.44546207 
*
