! EnGrad PBEh-3c
%output 
xyzfile=True 
end 
%scf 
maxiter 250 
end
%output
Print[P_Hirshfeld] = 1
end
% maxcore
4000
*xyz -1 1
Pd  -1.98951663  -1.55036216   0.44761765 
Cl  -3.28360694  -3.30224213  -0.31059960 
Cl  -0.47351797  -4.63918167   0.94979834 
Cl  -4.07085322  -0.55741823   1.17810423 
N   -0.98666954  -0.02374935   1.38988533 
C   -1.31796930   0.52080725   2.55164572 
C   -0.79352270   1.74937283   2.97931768 
C    0.08663803   2.41081808   2.16093922 
C   -0.07395507   0.56226814   0.60459422 
C    0.46849564   1.81528789   0.95369283 
H    0.50525022   3.36789800   2.44754573 
H   -2.02481951  -0.01201481   3.17686114 
H   -1.11238020   2.17902902   3.91972557 
C    0.31442017  -0.13126437  -0.58316966 
C    1.39474892   2.44702917   0.06139890 
C    1.74539460   1.84474605  -1.09232591 
C    1.23636279   0.54187036  -1.43920762 
H    1.80858357   3.41432128   0.33042661 
H    2.44387758   2.33527006  -1.76771524 
C   -0.23670287  -1.40843930  -0.87517909 
C    1.66991592  -0.07961317  -2.62778850 
C    0.23052100  -1.96460185  -2.05931840 
C    1.17041095  -1.32751531  -2.91811864 
H    2.37165969   0.43415435  -3.29083863 
H    1.53429826  -1.80934232  -3.83768386 
H   -0.48150169  -3.89898802   0.08624891 
H   -0.13549191  -2.91414107  -2.43563426 
*
