! EnGrad PBEh-3c
%output 
xyzfile=True 
end 
%scf 
maxiter 250 
end
%output
Print[P_Hirshfeld] = 1
end
% maxcore
4000
*xyz -1 1
Pd  -1.98781147  -1.52518143   0.42261304 
Cl  -3.28269188  -3.29998098  -0.31560855 
Cl  -0.48036433  -4.67516556   1.02707266 
Cl  -4.04704908  -0.53503708   1.15907811 
N   -0.98095170  -0.02900283   1.38974289 
C   -1.31644716   0.51195397   2.54920537 
C   -0.79099306   1.73523277   2.98026709 
C    0.08614268   2.40084839   2.16156472 
C   -0.06865162   0.56078922   0.60227113 
C    0.47075335   1.81122303   0.95252522 
H    0.50249905   3.36375846   2.44523799 
H   -2.02847259  -0.02074247   3.17553445 
H   -1.10810547   2.16569373   3.92180569 
C    0.31764849  -0.13158339  -0.58612710 
C    1.38726991   2.44581747   0.06275109 
C    1.73812024   1.83846035  -1.09454715 
C    1.23260486   0.53441990  -1.43445500 
H    1.80052366   3.41499959   0.32998181 
H    2.43521298   2.33583382  -1.77211385 
C   -0.23642617  -1.40463619  -0.87723251 
C    1.66097985  -0.08089413  -2.62552215 
C    0.23302958  -1.97034130  -2.06225056 
C    1.16798665  -1.33291183  -2.91084076 
H    2.36825494   0.43774065  -3.29104751 
H    1.52692961  -1.80732524  -3.82835093 
H   -0.47741171  -3.81824717   0.04710844 
H   -0.12377952  -2.92168039  -2.42769490 
*
