! EnGrad PBEh-3c
%output 
xyzfile=True 
end 
%scf 
maxiter 250 
end
%output
Print[P_Hirshfeld] = 1
end
% maxcore
4000
*xyz -1 1
Pd  -1.97669390  -1.49099358   0.36836033 
Cl  -3.27794237  -3.29136080  -0.32219279 
Cl  -0.49759702  -4.65743462   1.06834134 
Cl  -4.01100201  -0.49094663   1.12731314 
N   -0.97668274  -0.04171621   1.38776019 
C   -1.31553217   0.49280681   2.55051866 
C   -0.78510147   1.71287447   2.98288364 
C    0.08570764   2.38493261   2.16300559 
C   -0.06044233   0.55587678   0.60309938 
C    0.47388709   1.80652415   0.95242482 
H    0.49677903   3.35348577   2.44049074 
H   -2.03178170  -0.03385899   3.16921814 
H   -1.10057983   2.14123595   3.92530988 
C    0.32338587  -0.13264703  -0.58797881 
C    1.37873957   2.44357544   0.05814776 
C    1.72615964   1.83339219  -1.09452818 
C    1.23441997   0.53074390  -1.43657073 
H    1.78505733   3.41441006   0.32861689 
H    2.41692633   2.33410440  -1.77835800 
C   -0.24900295  -1.40880937  -0.87294746 
C    1.65175114  -0.08044175  -2.62277670 
C    0.23755664  -1.97802449  -2.05985541 
C    1.16707835  -1.33595201  -2.90544210 
H    2.35698238   0.44072014  -3.28700925 
H    1.51651394  -1.80707145  -3.81694034 
H   -0.46683002  -3.75159503   0.07667303 
H   -0.10480261  -2.93978249  -2.41557050 
*
