! EnGrad PBEh-3c
%output 
xyzfile=True 
end 
%scf 
maxiter 250 
end
%output
Print[P_Hirshfeld] = 1
end
% maxcore
4000
*xyz -1 1
Pd  -1.97457265  -1.45705754   0.31149323 
Cl  -3.26930964  -3.27879877  -0.33801767 
Cl  -0.50967488  -4.63246487   1.11168979 
Cl  -3.96711867  -0.44162482   1.09283006 
N   -0.97169232  -0.05262199   1.38449023 
C   -1.31088128   0.47278015   2.54843402 
C   -0.77909330   1.68724993   2.98501234 
C    0.08622887   2.36726359   2.16692353 
C   -0.05268819   0.55052283   0.60756271 
C    0.47905963   1.80237457   0.95297314 
H    0.48830510   3.33932647   2.43601192 
H   -2.03661634  -0.05156979   3.15847303 
H   -1.09198680   2.11135850   3.93037672 
C    0.32955131  -0.13564019  -0.59144479 
C    1.37017506   2.44174045   0.05369049 
C    1.71796492   1.83204304  -1.09737749 
C    1.23781010   0.53277704  -1.43852832 
H    1.76642921   3.41295743   0.32520110 
H    2.39222927   2.32874900  -1.78315483 
C   -0.25817554  -1.40963504  -0.87244641 
C    1.64365248  -0.08500711  -2.62444177 
C    0.24035431  -1.98721898  -2.05515900 
C    1.16749710  -1.33210656  -2.89463468 
H    2.33839477   0.43940379  -3.27896663 
H    1.50441706  -1.81253406  -3.80770686 
H   -0.45903904  -3.67757349   0.11884505 
H   -0.08654941  -2.96190926  -2.39858216 
*
