! EnGrad PBEh-3c
%output 
xyzfile=True 
end 
%scf 
maxiter 250 
end
%output
Print[P_Hirshfeld] = 1
end
% maxcore
4000
*xyz -1 1
Pt  -1.27729893  -1.02769580   0.64397521 
Cl  -0.30855059  -0.88734801   2.73601658 
Cl  -2.77610364  -2.57339303   1.18577108 
Cl  -1.97565811  -0.86000244  -1.54836478 
C    1.26886894   1.02654392  -0.50454607 
H    1.43802155   2.13508431  -0.46837757 
H    1.24326490   0.61381481   0.31112429 
H    2.06655587   0.63438668  -1.19198367 
H    0.32070883   0.93632439  -1.16125628 
*
