! EnGrad PBEh-3c
%output 
xyzfile=True 
end 
%scf 
maxiter 250 
end
%output
Print[P_Hirshfeld] = 1
end
% maxcore
4000
*xyz -1 1
Pt  -1.27937197  -1.02907498   0.64314837 
Cl  -0.30923234  -0.88739251   2.73092921 
Cl  -2.77400657  -2.57144625   1.18864486 
Cl  -1.97438345  -0.86138970  -1.54595253 
C    1.26260339   1.06316249  -0.58898249 
H    1.43813974   2.11787921  -0.46226890 
H    1.23477082   0.59468493   0.34551966 
H    2.05702220   0.63877804  -1.17818505 
H    0.34428946   0.93114997  -1.12881363 
*
