! EnGrad PBEh-3c
%output 
xyzfile=True 
end 
%scf 
maxiter 250 
end
%output
Print[P_Hirshfeld] = 1
end
% maxcore
4000
*xyz -1 1
Pt  -1.27598879  -1.02656291   0.64224716 
Cl  -0.30890669  -0.88600869   2.73092437 
Cl  -2.77548983  -2.57183829   1.18999284 
Cl  -1.97289285  -0.86294748  -1.54759921 
C    1.26548322   1.06117458  -0.58156916 
H    1.43962394   2.12490076  -0.45968471 
H    1.23442572   0.58916943   0.35021744 
H    2.06106492   0.63634901  -1.18474184 
H    0.33255483   0.93191434  -1.13540518 
*
