! EnGrad PBEh-3c
%output 
xyzfile=True 
end 
%scf 
maxiter 250 
end
%output
Print[P_Hirshfeld] = 1
end
% maxcore
4000
*xyz -1 1
Pt  -1.27400620  -1.02487362   0.64100405 
Cl  -0.30870110  -0.88511883   2.72851516 
Cl  -2.77627014  -2.57201893   1.19329421 
Cl  -1.97150027  -0.86484613  -1.54819289 
C    1.26412132   1.07494743  -0.61158219 
H    1.44162129   2.12620587  -0.45498918 
H    1.23001501   0.57534478   0.37087162 
H    2.06257678   0.63555452  -1.18553533 
H    0.33211676   0.92992457  -1.12761944 
*
