! EnGrad PBEh-3c
%output 
xyzfile=True 
end 
%scf 
maxiter 250 
end
%output
Print[P_Hirshfeld] = 1
end
% maxcore
4000
*xyz -1 1
Pt  -1.27312092  -1.02402524   0.64053326 
Cl  -0.30833152  -0.88497293   2.72783957 
Cl  -2.77710081  -2.57282446   1.19511988 
Cl  -1.97141373  -0.86540706  -1.54890540 
C    1.26412373   1.07361641  -0.60894814 
H    1.44287145   2.13024183  -0.45387256 
H    1.22923023   0.57473957   0.37136193 
H    2.06586514   0.63431342  -1.18813090 
H    0.32792581   0.92892738  -1.12854010 
*
