! EnGrad PBEh-3c
%output 
xyzfile=True 
end 
%scf 
maxiter 250 
end
%output
Print[P_Hirshfeld] = 1
end
% maxcore
4000
*xyz -1 1
Pt  -1.27230827  -1.02315604   0.63952905 
Cl  -0.30701011  -0.88476559   2.72641568 
Cl  -2.77843684  -2.57428944   1.19982626 
Cl  -1.97162680  -0.86664056  -1.55098058 
C    1.26472409   1.06927953  -0.59935903 
H    1.44510140   2.13648148  -0.45245891 
H    1.22834131   0.57619116   0.36862153 
H    2.07123104   0.63293976  -1.19244767 
H    0.32028645   0.92713650  -1.13078518 
*
