! EnGrad PBEh-3c
%output 
xyzfile=True 
end 
%scf 
maxiter 250 
end
%output
Print[P_Hirshfeld] = 1
end
% maxcore
4000
*xyz 0 1
C   -1.36806327   0.13219496  -0.81955527 
C   -2.25426949  -0.87631819  -1.16179577 
C   -2.05249605  -2.16952213  -0.71224425 
C   -0.96468846  -2.46380732   0.09213506 
C   -0.35399675  -0.18678702   0.05572432 
C   -0.10904308  -1.46123758   0.50859997 
H   -1.55885926   1.10145689  -1.27066814 
H   -3.09879365  -0.65596479  -1.80477594 
H   -2.75396438  -2.94552347  -0.97890287 
H    0.70828937  -1.75150507   1.16230023 
H   -0.80705287  -3.47972626   0.43751963 
Pd   1.51551065   1.09197172  -0.20994556 
O    3.52365801   1.50024953  -0.81776144 
O    2.74787316  -0.51410657  -0.61286374 
O    0.33160177   2.72890919   0.16810525 
C   -0.16044861   2.81233980   1.28236658 
O    0.23999441   2.01027084   2.21273688 
H   -1.05551072   1.42729545   2.98857186 
C    3.69934555   0.27057308  -0.86950330 
H    4.66259751  -0.16531917  -1.16926094 
H   -0.89167579   3.59454609   1.51923352 
*
