! EnGrad PBEh-3c
%output 
xyzfile=True 
end 
%scf 
maxiter 250 
end
%output
Print[P_Hirshfeld] = 1
end
% maxcore
4000
*xyz 0 1
C   -1.42083425   0.17430623  -0.66330623 
C   -2.15956066  -0.88952497  -1.18390771 
C   -1.84469495  -2.21133163  -0.88999015 
C   -0.91381529  -2.43574022   0.12234046 
C   -0.29073108  -0.15045455   0.08661804 
C   -0.15968868  -1.40934026   0.67422566 
H   -1.68105159   1.20055348  -0.91358377 
H   -2.86879109  -0.69320474  -1.96683668 
H   -2.30678789  -3.05367844  -1.44223449 
H    0.58880416  -1.58410644   1.43959302 
H   -0.61236642  -3.43906115   0.33779198 
Pd   1.28975028   0.95376578  -0.13612795 
O    3.32477053   1.35927991  -1.10305033 
O    2.61977923  -0.60210644  -0.37293549 
O    0.39193782   2.71821024   0.38581223 
C   -0.25965863   2.86770127   1.38429770 
O    0.06334783   2.01357473   2.35906339 
H   -0.80261563   1.59950657   2.54781929 
C    3.47952135   0.13761149  -0.93583057 
H    4.36532220  -0.35875669  -1.34429231 
H   -0.82284015   3.79128607   1.60958481 
*
