! EnGrad PBEh-3c
%output 
xyzfile=True 
end 
%scf 
maxiter 250 
end
%output
Print[P_Hirshfeld] = 1
end
% maxcore
4000
*xyz 0 1
C   -1.39561015   0.13202122  -0.79339914 
C   -2.24290923  -0.88017211  -1.17583409 
C   -2.02165383  -2.17136973  -0.73740140 
C   -0.95302789  -2.46762518   0.09254700 
C   -0.32879417  -0.13811987   0.08558422 
C   -0.12871191  -1.46452317   0.53964701 
H   -1.58150008   1.10892622  -1.22697948 
H   -3.06881395  -0.66048801  -1.82932567 
H   -2.69927814  -2.95339582  -1.02997691 
H    0.68512697  -1.73533177   1.19835954 
H   -0.77775395  -3.47718367   0.41907402 
Pd   1.46706688   1.05867124  -0.19103814 
O    3.50798489   1.48944945  -0.85704275 
O    2.73231765  -0.51267159  -0.57523164 
O    0.33575954   2.74872829   0.16416198 
C   -0.14187626   2.82409532   1.28040035 
O    0.18725554   1.98850592   2.25954025 
H   -1.00744157   1.44243216   2.93214040 
C    3.67578935   0.25016296  -0.88854945 
H    4.63285366  -0.18946507  -1.19009789 
H   -0.87688865   3.60711953   1.52308326 
*
