! EnGrad PBEh-3c
%output 
xyzfile=True 
end 
%scf 
maxiter 250 
end
%output
Print[P_Hirshfeld] = 1
end
% maxcore
4000
*xyz 0 1
C   -1.43492299   0.13975209  -0.72796128 
C   -2.21660736  -0.89207140  -1.20170598 
C   -1.95564909  -2.17814882  -0.79256654 
C   -0.93053174  -2.47066246   0.09061376 
C   -0.29513225  -0.06039595   0.14705191 
C   -0.16599259  -1.44734088   0.60174780 
H   -1.63235833   1.12557645  -1.13345990 
H   -3.00691660  -0.67000689  -1.88479617 
H   -2.58155440  -2.97182353  -1.14163399 
H    0.63598809  -1.70255964   1.27834581 
H   -0.71429348  -3.47580968   0.38052859 
Pd   1.37291994   0.99435751  -0.15230282 
O    3.46978116   1.45913774  -0.94292085 
O    2.69436718  -0.51767926  -0.49398253 
O    0.34800689   2.78547487   0.16123376 
C   -0.11185883   2.84116610   1.29313153 
O    0.06744726   1.94935187   2.34479374 
H   -0.89518045   1.48025674   2.80455650 
C    3.62474501   0.21863827  -0.92570420 
H    4.56869559  -0.24317271  -1.23683230 
H   -0.84182682   3.63512809   1.53065455 
*
