! EnGrad PBEh-3c
%output 
xyzfile=True 
end 
%scf 
maxiter 250 
end
%output
Print[P_Hirshfeld] = 1
end
% maxcore
4000
*xyz 0 1
C   -1.47598035   0.17655386  -0.58079473 
C   -2.13818390  -0.90100357  -1.23127062 
C   -1.81846048  -2.20658379  -0.91140821 
C   -0.87820687  -2.44444518   0.08635112 
C   -0.33351532  -0.00937313   0.26771055 
C   -0.22242000  -1.37409599   0.72415101 
H   -1.74498465   1.16359166  -0.93622025 
H   -2.88231394  -0.68837064  -2.00857857 
H   -2.33207756  -3.01733382  -1.38502872 
H    0.53114605  -1.63680212   1.45266132 
H   -0.57867966  -3.48089897   0.30319949 
Pd   1.23088745   0.92168807  -0.07675764 
O    3.37520200   1.38589105  -1.12948975 
O    2.62687478  -0.53905276  -0.33495085 
O    0.37305211   2.82819058   0.21106972 
C   -0.09332816   2.85171752   1.33852101 
O   -0.14626105   1.90617633   2.44196867 
H   -0.66677979   1.56509531   2.53617636 
C    3.49685627   0.15487172  -0.97753775 
H    4.42699811  -0.35992558  -1.34077419 
H   -0.75367982   3.70030830   1.54800008 
*
