! EnGrad PBEh-3c
%output 
xyzfile=True 
end 
%scf 
maxiter 250 
end
%output
Print[P_Hirshfeld] = 1
end
% maxcore
4000
*xyz 0 1
C   -1.44458710   0.16655940  -0.63271328 
C   -2.16696191  -0.88984729  -1.20861084 
C   -1.87161107  -2.19777128  -0.86598302 
C   -0.90116060  -2.44580040   0.09887449 
C   -0.31780087  -0.06036267   0.19300021 
C   -0.19414672  -1.38854014   0.67232592 
H   -1.69748122   1.15280121  -1.00753583 
H   -2.92949586  -0.68279798  -1.96205896 
H   -2.42802685  -3.01157270  -1.30395631 
H    0.57491088  -1.65591380   1.38554277 
H   -0.63164611  -3.47732297   0.33343053 
Pd   1.27821061   0.94876014  -0.11190911 
O    3.41161486   1.41367266  -1.05721102 
O    2.65385405  -0.54051380  -0.39547862 
O    0.36383908   2.79616372   0.24279825 
C   -0.13783587   2.83098516   1.33148268 
O   -0.03575374   1.95257892   2.37072920 
H   -0.76144091   1.54333769   2.62512095 
C    3.53757400   0.17920311  -0.95499932 
H    4.47451543  -0.31545472  -1.30104411 
H   -0.78097204   3.67827276   1.54540318 
*
