! EnGrad PBEh-3c
%output 
xyzfile=True 
end 
%scf 
maxiter 250 
end
%output
Print[P_Hirshfeld] = 1
end
% maxcore
4000
*xyz 0 1
C   -1.42097684   0.17378679  -0.63135344 
C   -2.16472034  -0.88188703  -1.19271685 
C   -1.87503571  -2.20225614  -0.86511800 
C   -0.90685980  -2.43306949   0.11002068 
C   -0.32473768  -0.10939156   0.15501133 
C   -0.18140413  -1.37135760   0.66417293 
H   -1.69058798   1.15751100  -1.00410275 
H   -2.93039795  -0.68455803  -1.96147685 
H   -2.42947679  -3.02497979  -1.31722434 
H    0.58139527  -1.64862400   1.38357708 
H   -0.63483409  -3.47540234   0.33617581 
Pd   1.27936583   0.95441501  -0.12316711 
O    3.40997733   1.41060825  -1.05473317 
O    2.65545698  -0.55521051  -0.39724067 
O    0.36980018   2.77178451   0.29786892 
C   -0.19150626   2.81170108   1.35998915 
O    0.01119725   1.99858015   2.32091960 
H   -0.78260638   1.55311772   2.61448083 
C    3.52902214   0.18221850  -0.94914253 
H    4.46655022  -0.31545022  -1.30145215 
H   -0.77652888   3.68380018   1.55232407 
*
