! EnGrad PBEh-3c
%output 
xyzfile=True 
end 
%scf 
maxiter 250 
end
%output
Print[P_Hirshfeld] = 1
end
% maxcore
4000
*xyz -1 1
Pt  -0.98846141  -0.89091316   0.53484318 
Cl  -0.24619501  -0.54700970   2.71415784 
Cl  -2.67053918  -2.23294460   1.15375237 
Cl  -1.58098703  -1.08881583  -1.70455776 
C    1.07811257   0.91188952  -0.50090116 
H    1.44887754   1.83568939  -0.02932048 
H    1.21627356   0.00666686   0.19869352 
H    1.66689578   0.72000183  -1.39752579 
H    0.07258295   1.28499359  -0.96885397 
*
