! EnGrad PBEh-3c
%output 
xyzfile=True 
end 
%scf 
maxiter 250 
end
%output
Print[P_Hirshfeld] = 1
end
% maxcore
4000
*xyz -1 1
Pt  -0.98744032  -0.89288704   0.53310295 
Cl  -0.24510453  -0.53976732   2.70387368 
Cl  -2.66077836  -2.21946494   1.15210265 
Cl  -1.56916699  -1.08989087  -1.70060835 
C    1.07238133   0.90060087  -0.48988092 
H    1.45147275   1.81380664  -0.01831715 
H    1.18050102   0.05324822   0.14875999 
H    1.66270843   0.71931985  -1.39606882 
H    0.09028308   1.25449961  -0.93252770 
*
