! EnGrad PBEh-3c
%output 
xyzfile=True 
end 
%scf 
maxiter 250 
end
%output
Print[P_Hirshfeld] = 1
end
% maxcore
4000
*xyz -1 1
Pt  -0.98642127  -0.88990444   0.52669575 
Cl  -0.24267410  -0.52916482   2.68739943 
Cl  -2.65700696  -2.20927356   1.15585218 
Cl  -1.55228596  -1.09092658  -1.69599440 
C    1.04532371   0.99130015  -0.56768414 
H    1.46146173   1.76832848   0.00606845 
H    1.12739443   0.07060000   0.12215603 
H    1.65965258   0.71246609  -1.38182476 
H    0.13469756   1.17602240  -0.85174847 
*
