! EnGrad PBEh-3c
%output 
xyzfile=True 
end 
%scf 
maxiter 250 
end
%output
Print[P_Hirshfeld] = 1
end
% maxcore
4000
*xyz -1 1
Pt  -0.98545241  -0.88950882   0.52766028 
Cl  -0.24256864  -0.52970066   2.68872125 
Cl  -2.66011941  -2.21214596   1.15710899 
Cl  -1.55367022  -1.09058741  -1.69789908 
C    1.09135999   0.95371571  -0.53510930 
H    1.46558772   1.78276166   0.00962874 
H    1.12854652   0.07895473   0.11773044 
H    1.66572273   0.71280220  -1.39248560 
H    0.08043511   1.19315205  -0.87435707 
*
