! EnGrad PBEh-3c
%output 
xyzfile=True 
end 
%scf 
maxiter 250 
end
%output
Print[P_Hirshfeld] = 1
end
% maxcore
4000
*xyz 0 1
Lu   0.10965280  -0.12804803   0.12872944 
C    0.46469270   0.67043045   2.56103845 
C    1.53050705  -0.20405325   2.24578441 
C    2.34853709   0.43765678   1.29027457 
C    1.74000298   1.66114624   0.93569519 
C    0.59131623   1.81190191   1.74833924 
H    2.11786511   2.38659533   0.22923701 
H    0.02494378   2.72543157   1.84396167 
H   -0.22097769   0.55163217   3.38504896 
H    1.71697905  -1.16175871   2.71011137 
H    3.26327918   0.04046767   0.87771687 
C    0.80452580  -0.09990926  -2.33778319 
C   -0.43518503  -0.77636061  -2.30099190 
C    1.11027347  -2.07671443  -1.24797024 
C    1.76667429  -0.91956015  -1.71468238 
H    0.99330403   0.84263208  -2.83120090 
C   -0.25037622  -1.98506528  -1.61625359 
H   -1.30443094  -0.51380604  -2.88158050 
H    2.81611228  -0.70071661  -1.58809523 
H    1.57351679  -2.89996505  -0.72277590 
H   -0.98410528  -2.77243481  -1.54020532 
C   -2.06493964  -1.53930797   1.19564452 
H   -2.29629557  -1.25187020   2.22552157 
H   -1.95494538  -2.63404762   1.22163314 
H   -2.97440029  -1.45337055   0.58925277 
C   -1.91983441   2.10380394  -0.96869593 
H   -2.58613329   0.62353093   0.32033193 
H   -1.02835219   2.63189413  -1.32813669 
H   -2.53817768   2.91332449  -0.56836837 
H   -2.41403903   1.71655175  -1.86158665 
*
