! EnGrad PBEh-3c
%output 
xyzfile=True 
end 
%scf 
maxiter 250 
end
%output
Print[P_Hirshfeld] = 1
end
% maxcore
4000
*xyz 0 1
Lu  -0.01314120  -0.08904770   0.10225310 
C    0.43473300   0.80736385   2.50633615 
C    1.42532509  -0.15501214   2.20689350 
C    2.29405635   0.39533663   1.24777142 
C    1.82234307   1.67845275   0.90873735 
C    0.67214908   1.93199832   1.69186072 
H    2.32468988   2.38385017   0.26284179 
H    0.11192034   2.85871399   1.70907979 
H   -0.34152427   0.70830523   3.24685640 
H    1.53926747  -1.12060936   2.68524521 
H    3.20411689  -0.06077004   0.88109433 
C    0.90737861  -0.06906424  -2.40511541 
C   -0.35841643  -0.70427599  -2.44269581 
C    1.04949578  -2.00369503  -1.20782219 
C    1.77727636  -0.88654784  -1.65931709 
H    1.19027602   0.82262881  -2.94132479 
C   -0.26913851  -1.90203079  -1.70738639 
H   -1.22536924  -0.35073067  -2.98004848 
H    2.83672124  -0.72602795  -1.52971082 
H    1.45259830  -2.83516404  -0.64358751 
H   -1.06106152  -2.61210018  -1.55144425 
C   -2.20183852  -1.43059218   1.17696557 
H   -2.21733607  -1.33106770   2.27198993 
H   -1.85368740  -2.46025411   1.01483918 
H   -3.28150649  -1.46325544   0.90094313 
C   -1.99229251   1.70574461  -0.72609620 
H   -2.01589580   0.68951271  -0.04417215 
H   -1.10199943   2.23444155  -1.07737525 
H   -2.54981786   2.48398566  -0.21114516 
H   -2.54483529   1.49927121  -1.63130774 
*
