! EnGrad PBEh-3c
%output 
xyzfile=True 
end 
%scf 
maxiter 250 
end
%output
Print[P_Hirshfeld] = 1
end
% maxcore
4000
*xyz 0 1
Lu   0.04158744  -0.14037291   0.14205697 
C    0.47415870   0.68525494   2.55917146 
C    1.52915479  -0.18980885   2.24621578 
C    2.33817242   0.42674353   1.27921639 
C    1.75210560   1.65969541   0.94796809 
C    0.60553131   1.82722371   1.75172641 
H    2.13285453   2.38678809   0.23138311 
H    0.02222779   2.73053968   1.82926821 
H   -0.23328824   0.55891676   3.37200457 
H    1.70512604  -1.15947482   2.70796744 
H    3.26150154   0.03344509   0.87844422 
C    0.81913271  -0.09815341  -2.35004119 
C   -0.42185784  -0.77385734  -2.32252180 
C    1.10442591  -2.06778850  -1.24108678 
C    1.76373823  -0.91533154  -1.70325111 
H    1.00648724   0.84337573  -2.83804717 
C   -0.24774932  -1.99246742  -1.63394414 
H   -1.30495017  -0.49717325  -2.88011291 
H    2.81909149  -0.70235684  -1.58718271 
H    1.56495685  -2.89678251  -0.71874674 
H   -0.99078039  -2.75831510  -1.53212891 
C   -2.06646448  -1.52301443   1.18544601 
H   -2.29480793  -1.25770988   2.22580045 
H   -1.93103789  -2.63400782   1.20984383 
H   -2.99793738  -1.45303252   0.61831240 
C   -1.98884138   2.07878775  -0.95232665 
H   -2.49467832   0.65382397   0.26663848 
H   -1.00755578   2.59514964  -1.30009589 
H   -2.54013841   2.87975986  -0.54173837 
H   -2.42005368   1.70081712  -1.83934270 
*
