! EnGrad PBEh-3c
%output 
xyzfile=True 
end 
%scf 
maxiter 250 
end
%output
Print[P_Hirshfeld] = 1
end
% maxcore
4000
*xyz 0 1
Lu  -0.00659594  -0.14843031   0.15126003 
C    0.47501794   0.69810300   2.56164799 
C    1.52707349  -0.18739341   2.24928336 
C    2.33361562   0.41860981   1.26932554 
C    1.76254714   1.66454129   0.94981950 
C    0.61624212   1.83960991   1.75359084 
H    2.14555727   2.38434627   0.23576697 
H    0.02146324   2.73658629   1.81686197 
H   -0.24145019   0.56664251   3.35910143 
H    1.69362642  -1.15429166   2.70484131 
H    3.25876424   0.02699931   0.87921682 
C    0.82851508  -0.09877877  -2.35796409 
C   -0.41319487  -0.77378790  -2.33901137 
C    1.09952082  -2.06403415  -1.23445970 
C    1.76524575  -0.90969387  -1.69459298 
H    1.01936101   0.84513887  -2.84513915 
C   -0.24461280  -1.98930380  -1.64977121 
H   -1.30320659  -0.48321041  -2.88031771 
H    2.82016269  -0.70448427  -1.58554918 
H    1.55705651  -2.89287078  -0.71503868 
H   -0.99852476  -2.74843461  -1.52634646 
C   -2.06774611  -1.51616371   1.18015134 
H   -2.29195261  -1.26352363   2.22598702 
H   -1.91319638  -2.62752188   1.19902535 
H   -3.01928363  -1.45308424   0.64222300 
C   -2.00468653   2.05244488  -0.93254610 
H   -2.42021476   0.68183135   0.21892350 
H   -1.01073746   2.55528313  -1.27068988 
H   -2.55302608   2.86312798  -0.51311903 
H   -2.43498091   1.68267618  -1.83287253 
*
