! EnGrad PBEh-3c
%output 
xyzfile=True 
end 
%scf 
maxiter 250 
end
%output
Print[P_Hirshfeld] = 1
end
% maxcore
4000
*xyz 0 1
Lu  -0.06120674  -0.15539843   0.16008219 
C    0.47573456   0.71596791   2.56213444 
C    1.51911015  -0.18188298   2.24991813 
C    2.32522072   0.41046142   1.25902393 
C    1.77571756   1.66928677   0.94909830 
C    0.63180939   1.85723566   1.75418822 
H    2.16821007   2.38205695   0.24153932 
H    0.02367006   2.74916673   1.79786949 
H   -0.25475047   0.58160442   3.34105225 
H    1.67433803  -1.14856031   2.70135534 
H    3.25520983   0.01503094   0.87956564 
C    0.84161588  -0.09819956  -2.36830796 
C   -0.40311983  -0.77096516  -2.36346621 
C    1.09341652  -2.05559334  -1.22678160 
C    1.76691893  -0.90342475  -1.68267150 
H    1.04143427   0.84638060  -2.85704374 
C   -0.24439838  -1.98296782  -1.67022825 
H   -1.29695183  -0.46207625  -2.88421804 
H    2.82308950  -0.70805415  -1.58132402 
H    1.54418383  -2.88730474  -0.70714280 
H   -1.00903677  -2.73062472  -1.52085906 
C   -2.07459458  -1.51211840   1.17630610 
H   -2.28462537  -1.27446630   2.22806383 
H   -1.89043318  -2.61253346   1.18082939 
H   -3.05387096  -1.45452482   0.67943974 
C   -2.00595035   2.00495846  -0.89646944 
H   -2.31351425   0.72459319   0.14546663 
H   -1.03072130   2.49141315  -1.22468338 
H   -2.57394307   2.83648157  -0.46799265 
H   -2.46157992   1.65491512  -1.82335171 
*
