! EnGrad PBEh-3c
%output 
xyzfile=True 
end 
%scf 
maxiter 250 
end
%output
Print[P_Hirshfeld] = 1
end
% maxcore
4000
*xyz 0 1
Lu  -0.05200053  -0.15107590   0.15606244 
C    0.47251984   0.71833522   2.56059524 
C    1.51447318  -0.18335000   2.24817813 
C    2.32582307   0.41187825   1.26017438 
C    1.77577095   1.67005292   0.94417589 
C    0.63272999   1.85962947   1.75203376 
H    2.17460931   2.38221861   0.24241360 
H    0.02779586   2.75398689   1.79484940 
H   -0.25684826   0.58712945   3.33862637 
H    1.66912933  -1.14779242   2.70101489 
H    3.25364300   0.01180017   0.87964931 
C    0.84209187  -0.09738534  -2.36810880 
C   -0.40314823  -0.76902597  -2.36556336 
C    1.09224144  -2.05449494  -1.22695824 
C    1.76819178  -0.90285801  -1.68278981 
H    1.04742864   0.84543643  -2.86027018 
C   -0.24619747  -1.97731032  -1.67047895 
H   -1.29320083  -0.45853401  -2.88888912 
H    2.82396058  -0.70922417  -1.57910295 
H    1.54098635  -2.88579647  -0.70426489 
H   -1.01069072  -2.72647801  -1.52308820 
C   -2.08071911  -1.51629842   1.17929468 
H   -2.28085032  -1.27811383   2.23099758 
H   -1.89115400  -2.60633162   1.17612919 
H   -3.06213229  -1.45614153   0.68610864 
C   -1.98873532   1.99112264  -0.88634396 
H   -2.30439255   0.72908284   0.13518746 
H   -1.04512623   2.48018527  -1.21780617 
H   -2.57680524   2.82912467  -0.45988950 
H   -2.46809012   1.65069886  -1.82028327 
*
