! EnGrad PBEh-3c
%output 
xyzfile=True 
end 
%scf 
maxiter 250 
end
%output
Print[P_Hirshfeld] = 1
end
% maxcore
4000
*xyz 0 1
Lu  -0.06218060  -0.14924645   0.15503915 
C    0.47258860   0.72634572   2.55701505 
C    1.50814164  -0.17893029   2.24529657 
C    2.32258282   0.40977423   1.25835721 
C    1.77971156   1.66958254   0.94341749 
C    0.63846932   1.86745719   1.75002547 
H    2.18779381   2.38302446   0.24367034 
H    0.03231122   2.76175977   1.78633862 
H   -0.26398855   0.59652992   3.33178252 
H    1.65868730  -1.14662922   2.70007760 
H    3.25108574   0.00551112   0.88005835 
C    0.84811080  -0.09517239  -2.37230751 
C   -0.39818108  -0.76499271  -2.37516844 
C    1.08875563  -2.04965766  -1.22507219 
C    1.76818856  -0.90126442  -1.67929527 
H    1.05914423   0.84413450  -2.86644315 
C   -0.24775124  -1.97396549  -1.67593211 
H   -1.28892511  -0.44859240  -2.89467533 
H    2.82626411  -0.71115255  -1.57602783 
H    1.53404108  -2.88281952  -0.69934385 
H   -1.01473059  -2.71627913  -1.52346029 
C   -2.08878670  -1.51405442   1.17896212 
H   -2.27584882  -1.28464302   2.23553233 
H   -1.88445048  -2.60046906   1.16635913 
H   -3.08072268  -1.45817333   0.70415692 
C   -2.00095255   1.96568265  -0.86898717 
H   -2.26353011   0.74276322   0.10622268 
H   -1.05057370   2.45702723  -1.20215081 
H   -2.57778655   2.80545910  -0.44231065 
H   -2.47570192   1.64123061  -1.80575450 
*
