! EnGrad PBEh-3c
%output 
xyzfile=True 
end 
%scf 
maxiter 250 
end
%output
Print[P_Hirshfeld] = 1
end
% maxcore
4000
*xyz 0 1
Lu  -0.06552950  -0.11661820   0.12855622 
C    0.45877422   0.77439887   2.53121407 
C    1.46434212  -0.16182355   2.22449604 
C    2.30808473   0.40150565   1.25299457 
C    1.80369460   1.67227688   0.92677258 
C    0.66486239   1.90907186   1.72592450 
H    2.26958455   2.38645768   0.25381130 
H    0.07259138   2.81592242   1.73912778 
H   -0.30543600   0.66049578   3.28845326 
H    1.59066172  -1.13553832   2.69259434 
H    3.23016286  -0.03265301   0.88331964 
C    0.88292955  -0.08108779  -2.39303576 
C   -0.37253845  -0.73425102  -2.42219076 
C    1.06748580  -2.02354381  -1.21589774 
C    1.77277552  -0.89321521  -1.66609987 
H    1.13396855   0.83334941  -2.90828751 
C   -0.25838778  -1.93860508  -1.69852114 
H   -1.25545366  -0.39094389  -2.94155178 
H    2.83677137  -0.72332486  -1.55381611 
H    1.48847901  -2.85943703  -0.66787080 
H   -1.04027370  -2.65518000  -1.53593210 
C   -2.15628602  -1.49028852   1.18277990 
H   -2.24279463  -1.32417474   2.26811572 
H   -1.86131965  -2.55447463   1.09663639 
H   -3.20004621  -1.47121355   0.81583209 
C   -2.02280983   1.80755508  -0.77060871 
H   -2.07847779   0.76666591  -0.01996702 
H   -1.09070239   2.33476349  -1.12827474 
H   -2.57074002   2.64413586  -0.32902983 
H   -2.51850263   1.57862375  -1.71039891 
*
