! EnGrad PBEh-3c
%output 
xyzfile=True 
end 
%scf 
maxiter 250 
end
%output
Print[P_Hirshfeld] = 1
end
% maxcore
4000
*xyz -1 1
Pt  -0.68820997  -0.72449931   0.40467963 
Cl  -0.07892565  -0.22954913   2.60579377 
Cl  -2.59166007  -1.95893993   1.11441550 
Cl  -1.22176391  -1.22085692  -1.81830677 
C    0.77576796   0.96767400  -0.49161513 
H    1.38836440   1.55060383   0.19275618 
H    1.16479120  -0.71063635   0.17228329 
H    1.33752363   0.74869526  -1.39945143 
H   -0.08588759   1.57750601  -0.78054008 
*
