! EnGrad PBEh-3c
%output 
xyzfile=True 
end 
%scf 
maxiter 250 
end
%output
Print[P_Hirshfeld] = 1
end
% maxcore
4000
*xyz -1 1
Pt  -0.57098594  -0.72690325   0.39193098 
Cl  -0.10234613  -0.25136939   2.61397749 
Cl  -2.56468790  -1.95592630   1.10757134 
Cl  -1.24922273  -1.20614077  -1.80248099 
C    0.77562187   0.92848679  -0.48679440 
H    1.39061487   1.55407377   0.19192137 
H    1.03870736  -0.61462594   0.17026315 
H    1.35840829   0.73095557  -1.39286318 
H   -0.07666234   1.54173173  -0.79289068 
*
