! EnGrad PBEh-3c
%output 
xyzfile=True 
end 
%scf 
maxiter 250 
end
%output
Print[P_Hirshfeld] = 1
end
% maxcore
4000
*xyz -1 1
Pt  -0.57106490  -0.72630320   0.39042769 
Cl  -0.10292439  -0.25351441   2.61481952 
Cl  -2.55481294  -1.95269390   1.10514644 
Cl  -1.24936814  -1.20388339  -1.80018482 
C    0.77787824   0.92664629  -0.48300888 
H    1.38724149   1.54891672   0.18993460 
H    1.02857411  -0.60254061   0.16773742 
H    1.35955418   0.72668784  -1.39011119 
H   -0.07574574   1.53654558  -0.79419996 
*
