! EnGrad PBEh-3c
%output 
xyzfile=True 
end 
%scf 
maxiter 250 
end
%output
Print[P_Hirshfeld] = 1
end
% maxcore
4000
*xyz -1 1
Pt  -0.54503888  -0.72553418   0.38570800 
Cl  -0.10880614  -0.26139508   2.61773299 
Cl  -2.53307042  -1.94661235   1.09975277 
Cl  -1.25529103  -1.19718972  -1.79354573 
C    0.77895428   0.91328773  -0.47773637 
H    1.38373009   1.54231688   0.18857607 
H    0.98452342  -0.56159939   0.16262002 
H    1.36582958   0.71586501  -1.38415876 
H   -0.07181467   1.52009722  -0.79835252 
*
