! EnGrad PBEh-3c
%output 
xyzfile=True 
end 
%scf 
maxiter 250 
end
%output
Print[P_Hirshfeld] = 1
end
% maxcore
4000
*xyz -1 1
Pt  -0.56943455  -0.71654463   0.38352224 
Cl  -0.10497869  -0.26487366   2.61749816 
Cl  -2.46731012  -1.91970219   1.08400844 
Cl  -1.24372637  -1.18612561  -1.78831377 
C    0.76907233   0.88764443  -0.46903303 
H    1.37022490   1.50777800   0.19885415 
H    0.95202166  -0.49210357   0.13676255 
H    1.36297079   0.68460417  -1.36271112 
H   -0.07087975   1.49523617  -0.80011451 
*
