! EnGrad PBEh-3c
%output 
xyzfile=True 
end 
%scf 
maxiter 250 
end
%output
Print[P_Hirshfeld] = 1
end
% maxcore
4000
*xyz -1 1
Pt  -0.58306076  -0.71316556   0.38581365 
Cl  -0.10079366  -0.26150023   2.61580169 
Cl  -2.45943854  -1.91534807   1.08262595 
Cl  -1.23735860  -1.18605653  -1.79179006 
C    0.76675016   0.88322194  -0.46695807 
H    1.36754674   1.49979809   0.20390323 
H    0.95871820  -0.48655713   0.12963247 
H    1.35921392   0.67923512  -1.35993390 
H   -0.07384897   1.49546390  -0.79861909 
*
