! EnGrad PBEh-3c
%output 
xyzfile=True 
end 
%scf 
maxiter 250 
end
%output
Print[P_Hirshfeld] = 1
end
% maxcore
4000
*xyz 1 1
Sc   1.61784051  -1.42547326  -1.57613563 
C    0.48194126  -0.72765282   0.24620396 
N   -0.46180478  -1.40828548   0.91871681 
C   -0.89247979  -0.69302210   1.99771220 
C   -0.23421153   0.48589668   1.97186497 
N    0.62449326   0.43300802   0.91338031 
C    1.51498398   1.51879290   0.55893919 
H    1.90246580   2.01730927   1.44489077 
H    0.99913086   2.25739267  -0.05030337 
H    2.37595929   1.13920739   0.01302821 
C   -0.97703481  -2.72498976   0.59494842 
H   -0.40217441  -3.17079817  -0.21270076 
H   -2.01693284  -2.65510730   0.28294898 
H   -0.90107249  -3.37418665   1.46434639 
H   -1.62624760  -1.06567724   2.69139826 
H   -0.30088544   1.32546325   2.64176490 
C   -0.36537740   1.63074468  -2.76206634 
H   -0.88217599   1.13937418  -3.58401305 
H   -0.61797735   2.69038365  -2.79568729 
H   -0.77059785   1.21710795  -1.83485474 
H    0.93217896   1.39052893  -2.92439057 
*
