! EnGrad PBEh-3c
%output 
xyzfile=True 
end 
%scf 
maxiter 250 
end
%output
Print[P_Hirshfeld] = 1
end
% maxcore
4000
*xyz 1 1
Sc   1.62166659  -1.41497505  -1.56543869 
C    0.48516644  -0.72592951   0.23426707 
N   -0.45442303  -1.40738302   0.92470693 
C   -0.90387929  -0.69027721   2.00027483 
C   -0.22134796   0.47113550   2.00128804 
N    0.61417130   0.43799678   0.91351689 
C    1.51707025   1.53494250   0.55423010 
H    1.87023917   2.02586852   1.45623906 
H    0.99652861   2.25131211  -0.07013628 
H    2.37815305   1.14019034   0.02414994 
C   -0.98265259  -2.72403123   0.59489727 
H   -0.41801839  -3.15512084  -0.22819531 
H   -2.02764541  -2.65277411   0.29963616 
H   -0.89240468  -3.37948628   1.45613475 
H   -1.62209479  -1.07557798   2.70506085 
H   -0.28784125   1.32166486   2.65967338 
C   -0.26541816   1.59138567  -2.79542779 
H   -0.87004336   1.16551407  -3.58334742 
H   -0.50254806   2.66891005  -2.80888824 
H   -0.70974170   1.23601360  -1.85753981 
H    0.67527728   1.38134816  -2.91480728 
*
