! EnGrad PBEh-3c
%output 
xyzfile=True 
end 
%scf 
maxiter 250 
end
%output
Print[P_Hirshfeld] = 1
end
% maxcore
4000
*xyz 1 1
Sc   1.62528900  -1.41321162  -1.56255739 
C    0.47819885  -0.71973197   0.24436604 
N   -0.45617592  -1.40907803   0.92264311 
C   -0.90028966  -0.69368671   2.00097963 
C   -0.21597740   0.47006959   2.00209121 
N    0.61679139   0.44056099   0.91240014 
C    1.50909099   1.53194400   0.55778433 
H    1.85986977   2.03149135   1.45883012 
H    0.99525835   2.25164561  -0.07864225 
H    2.38129508   1.14111561   0.02900016 
C   -0.98295385  -2.72041428   0.59435140 
H   -0.42466185  -3.14972757  -0.23405088 
H   -2.03153677  -2.65128214   0.30601078 
H   -0.88857513  -3.38218343   1.45324346 
H   -1.62091803  -1.07976670   2.70980942 
H   -0.28266287   1.31950839   2.66750302 
C   -0.39004860   1.61912043  -2.78296109 
H   -0.86785733   1.17369613  -3.58479060 
H   -0.45513373   2.65110682  -2.81560775 
H   -0.68652131   1.24129920  -1.87035855 
H    0.73768833   1.34858727  -2.92966111 
*
