! EnGrad PBEh-3c
%output 
xyzfile=True 
end 
%scf 
maxiter 250 
end
%output
Print[P_Hirshfeld] = 1
end
% maxcore
4000
*xyz 1 1
Sc   1.62591849  -1.41310398  -1.56241568 
C    0.47856843  -0.72014131   0.24365883 
N   -0.45780480  -1.40757518   0.92352003 
C   -0.89971909  -0.69566685   2.00316718 
C   -0.21592762   0.47310839   2.00086515 
N    0.61589284   0.43968586   0.91533093 
C    1.50910918   1.53138717   0.55669678 
H    1.85898746   2.03182864   1.45836984 
H    0.99564764   2.25142586  -0.07872617 
H    2.38048222   1.14197717   0.03026810 
C   -0.98304521  -2.72101738   0.59391829 
H   -0.42523102  -3.14942984  -0.23440453 
H   -2.03124949  -2.65087397   0.30659436 
H   -0.88816674  -3.38219708   1.45270733 
H   -1.61994011  -1.07927722   2.70847266 
H   -0.28186404   1.31786113   2.66740439 
C   -0.35735984   1.61198249  -2.78866676 
H   -0.88061106   1.16737920  -3.59770004 
H   -0.45655905   2.66890208  -2.81656291 
H   -0.69533343   1.23465684  -1.85375079 
H    0.72835664   1.35021452  -2.92832367 
*
