! EnGrad PBEh-3c
%output 
xyzfile=True 
end 
%scf 
maxiter 250 
end
%output
Print[P_Hirshfeld] = 1
end
% maxcore
4000
*xyz 1 1
Sc   1.62895823  -1.41086949  -1.55986775 
C    0.47776174  -0.71978081   0.24373332 
N   -0.46149620  -1.40488244   0.92577734 
C   -0.89572472  -0.69699509   2.00868559 
C   -0.21594782   0.47451184   2.00215893 
N    0.61485877   0.43913301   0.92104570 
C    1.50655153   1.53168857   0.55533454 
H    1.84942203   2.03456965   1.45862161 
H    0.99607236   2.24985449  -0.08371960 
H    2.37954620   1.14427358   0.03577946 
C   -0.98410230  -2.72097537   0.59321148 
H   -0.43002441  -3.14534598  -0.23906906 
H   -2.03271295  -2.64903796   0.31184406 
H   -0.88499568  -3.38376298   1.44951503 
H   -1.61795222  -1.08063131   2.70824262 
H   -0.27621876   1.31352696   2.67209878 
C   -0.30121889   1.59570851  -2.80084370 
H   -0.90728264   1.16073700  -3.62357802 
H   -0.43173975   2.69794543  -2.82242902 
H   -0.70010367   1.22568726  -1.82885400 
H    0.68642591   1.34623635  -2.92704803 
*
