! EnGrad PBEh-3c
%output 
xyzfile=True 
end 
%scf 
maxiter 250 
end
%output
Print[P_Hirshfeld] = 1
end
% maxcore
4000
*xyz 1 1
Sc   1.63157783  -1.40938511  -1.55807134 
C    0.47624264  -0.71981697   0.24603757 
N   -0.46402469  -1.40335183   0.92644458 
C   -0.89155527  -0.69756505   2.01350697 
C   -0.21776094   0.47596364   2.00234737 
N    0.61632756   0.43782398   0.92361792 
C    1.50327248   1.53123206   0.55582009 
H    1.84253053   2.03594495   1.45743621 
H    0.99646830   2.24849845  -0.08704451 
H    2.37870578   1.14590371   0.03950598 
C   -0.98463329  -2.72015224   0.59329069 
H   -0.43285665  -3.14261450  -0.24235411 
H   -2.03332502  -2.64748659   0.31534965 
H   -0.88267189  -3.38509064   1.44723529 
H   -1.61745008  -1.08082141   2.70687679 
H   -0.27136366   1.31056088   2.67573467 
C   -0.31690551   1.59850715  -2.80349704 
H   -0.92244497   1.15801717  -3.63661953 
H   -0.41204272   2.71194907  -2.82710547 
H   -0.70108534   1.21959326  -1.81664323 
H    0.70297166   1.33438695  -2.93102111 
*
