! EnGrad PBEh-3c
%output 
xyzfile=True 
end 
%scf 
maxiter 250 
end
%output
Print[P_Hirshfeld] = 1
end
% maxcore
4000
*xyz 1 1
Sc   1.63824171  -1.40516754  -1.55235174 
C    0.47365268  -0.71984567   0.24895224 
N   -0.46615570  -1.40186442   0.92930883 
C   -0.88650558  -0.70018110   2.02092339 
C   -0.21665798   0.47641526   2.00574100 
N    0.61633461   0.43582971   0.92754046 
C    1.49660520   1.53117958   0.55596670 
H    1.82494932   2.04253663   1.45655405 
H    0.99543125   2.24377802  -0.09604040 
H    2.37778104   1.14946475   0.05003962 
C   -0.98563565  -2.71675329   0.59289939 
H   -0.44154406  -3.13385880  -0.25073598 
H   -2.03719470  -2.64396163   0.32469611 
H   -0.87578549  -3.38879962   1.44139856 
H   -1.61741658  -1.08252368   2.70794300 
H   -0.25938829   1.30627531   2.68802544 
C   -0.32194559   1.59594240  -2.81369643 
H   -0.94794598   1.16575213  -3.64725039 
H   -0.36239071   2.72230876  -2.83837470 
H   -0.69857665   1.21702279  -1.81138917 
H    0.69397819   1.30986801  -2.93874841 
*
