! EnGrad PBEh-3c
%output 
xyzfile=True 
end 
%scf 
maxiter 250 
end
%output
Print[P_Hirshfeld] = 1
end
% maxcore
4000
*xyz 1 1
Sc   1.64002251  -1.40422738  -1.55101400 
C    0.47402536  -0.72174632   0.24937149 
N   -0.46403130  -1.40429600   0.93014963 
C   -0.88507595  -0.69604547   2.02015533 
C   -0.21890942   0.47271473   2.00898918 
N    0.61778078   0.43593169   0.92453627 
C    1.49475482   1.53119427   0.55758755 
H    1.82249880   2.04418805   1.45489860 
H    0.99338771   2.24106224  -0.09665394 
H    2.37835814   1.14928961   0.05145745 
C   -0.98628225  -2.71628697   0.59408150 
H   -0.44200030  -3.13168732  -0.25154516 
H   -2.03726716  -2.64300338   0.32585146 
H   -0.87407957  -3.38932762   1.43990735 
H   -1.62117865  -1.08155763   2.70835849 
H   -0.25569000   1.30672022   2.69056598 
C   -0.34639685   1.60436544  -2.80651668 
H   -0.94304638   1.17836166  -3.62691547 
H   -0.36301767   2.69998421  -2.83968868 
H   -0.69809755   1.22684328  -1.83771463 
H    0.71394619   1.30165500  -2.94413681 
*
