! EnGrad PBEh-3c
%output 
xyzfile=True 
end 
%scf 
maxiter 250 
end
%output
Print[P_Hirshfeld] = 1
end
% maxcore
4000
*xyz -1 1
C   -2.65023381  -0.38746082   0.66541392 
C   -2.03129341   0.84816626   1.26509677 
C   -3.93505241  -0.57467942   1.20384867 
C   -4.71056125   0.39841569   1.84444732 
C   -4.13374513   1.56050203   2.29544225 
C   -2.77139615   1.73544983   2.10759136 
H   -2.43263376  -1.09072243  -0.27593010 
H   -4.38507044  -1.52406566   1.00333299 
H   -2.29366484   2.60458921   2.57971254 
H   -5.77813767   0.24191317   1.94771248 
H   -4.72177655   2.32547310   2.77450317 
C   -0.67837849   1.35841021   0.82192302 
C    0.48629859   0.53921197   1.42858885 
H   -0.51876273   2.41840670   1.05842027 
H   -0.68428380   1.32652914  -0.26694847 
C    1.73729251   0.58531235   0.61561878 
H    0.15867274  -0.49100885   1.55572055 
H    0.66664392   0.92046908   2.43797842 
C    1.84611012  -0.14217780  -0.58937850 
C    2.98829475   0.04461549  -1.36667691 
C    3.92672800   1.02086282  -1.04671214 
C    2.73889772   1.47973607   0.97155051 
C    3.82111817   1.72134771   0.14066309 
H    3.12492648  -0.54743985  -2.26524565 
H    4.75318071   1.20739357  -1.71972262 
H    2.69015656   1.95075387   1.94704887 
H    4.50422615   2.52695198   0.37069763 
Pd   0.44121139  -1.58866848  -1.20922328 
Br  -1.18179552  -3.62276085  -1.49060420 
P    1.23626890  -2.96326758   0.35966995 
H    0.36129223  -3.38313434   1.36342303 
C    0.61966415  -0.99652907  -3.98551495 
O    1.65150033  -1.61342372  -4.13631343 
O   -0.20970150  -1.04581625  -3.01107083 
O    0.31239443   0.01511216  -4.86848900 
H    2.37062403  -2.68570306   1.13102540 
H    1.64788076  -4.21245419  -0.14316115 
H    1.03277041   0.04623406  -5.51537964 
*
