! EnGrad PBEh-3c
%output 
xyzfile=True 
end 
%scf 
maxiter 250 
end
%output
Print[P_Hirshfeld] = 1
end
% maxcore
4000
*xyz -1 1
C   -2.65282641  -0.35923775   0.60006645 
C   -2.04553745   0.81713631   1.23674495 
C   -3.92098731  -0.57324150   1.12525809 
C   -4.70186874   0.38894401   1.81665794 
C   -4.14756183   1.55388324   2.27479343 
C   -2.77274700   1.71586829   2.06985254 
H   -2.42124920  -0.96232698  -0.18676885 
H   -4.36721375  -1.53105201   0.97052824 
H   -2.31250410   2.59546546   2.57693966 
H   -5.78095329   0.24848217   1.86426340 
H   -4.75062054   2.33730811   2.72673726 
C   -0.65536968   1.35742753   0.86767161 
C    0.50366992   0.53147709   1.45934446 
H   -0.51255690   2.41660773   1.15411913 
H   -0.64906568   1.36074595  -0.22485905 
C    1.75298734   0.57025770   0.62832295 
H    0.15945483  -0.49430580   1.57132451 
H    0.69580707   0.90652172   2.46659805 
C    1.82431493  -0.14705528  -0.59440325 
C    2.97069658   0.05598205  -1.36779365 
C    3.91765891   1.02714816  -1.05384052 
C    2.74373225   1.49413575   0.97377719 
C    3.82495512   1.72618560   0.14107476 
H    3.09799063  -0.53421663  -2.27158176 
H    4.73115043   1.22378160  -1.73612292 
H    2.72046923   1.93737251   1.96364693 
H    4.51617268   2.52239639   0.37274792 
Pd   0.41398895  -1.63350079  -1.20820309 
Br  -1.19809204  -3.63031692  -1.41509047 
P    1.24822067  -2.95853801   0.34381442 
H    0.40569242  -3.40518302   1.37153819 
C    0.60011960  -1.02396955  -3.97686382 
O    1.63880656  -1.60291332  -4.14507168 
O   -0.22707245  -1.10664061  -3.00711786 
O    0.27001754   0.00864323  -4.82690877 
H    2.41284568  -2.69301828   1.10369858 
H    1.65233436  -4.20453879  -0.18410161 
H    1.01202555   0.07395964  -5.48282801 
*
