! EnGrad PBEh-3c
%output 
xyzfile=True 
end 
%scf 
maxiter 250 
end
%output
Print[P_Hirshfeld] = 1
end
% maxcore
4000
*xyz -1 1
C   -2.67832035  -0.23509421   0.62535692 
C   -2.06091786   0.80020832   1.19329733 
C   -3.91833071  -0.57254842   1.03569539 
C   -4.69362986   0.37299058   1.77416026 
C   -4.15822182   1.54304892   2.24067681 
C   -2.77122855   1.68454469   2.02758240 
H   -2.37311307  -0.86038692  -0.14301581 
H   -4.35269235  -1.54294187   0.92031345 
H   -2.33526031   2.57232865   2.55918223 
H   -5.77956203   0.25025271   1.76914950 
H   -4.78275590   2.34771020   2.67009627 
C   -0.63073714   1.35039841   0.91943316 
C    0.52045167   0.51972592   1.49655900 
H   -0.50970517   2.40579137   1.26923815 
H   -0.60001530   1.40227402  -0.17359167 
C    1.76163616   0.55909826   0.63029956 
H    0.16114728  -0.50192532   1.59182621 
H    0.73206356   0.88778615   2.50306089 
C    1.79692864  -0.16146525  -0.60077118 
C    2.94346029   0.06935158  -1.37220826 
C    3.90652435   1.03142014  -1.06036434 
C    2.75422795   1.49598254   0.98158266 
C    3.82389982   1.73764217   0.13680466 
H    3.06499637  -0.51592779  -2.27970018 
H    4.70598906   1.24245243  -1.75612789 
H    2.75382015   1.92586689   1.98099160 
H    4.53388433   2.51621290   0.37599366 
Pd   0.40536392  -1.68971460  -1.17931467 
Br  -1.22049242  -3.63990807  -1.32405128 
P    1.26099423  -2.95483694   0.32451274 
H    0.46092304  -3.43264163   1.38249696 
C    0.61501120  -1.04736590  -3.96822462 
O    1.61125363  -1.59085739  -4.15798129 
O   -0.26649823  -1.16464328  -3.02033246 
O    0.21203364  -0.00274436  -4.77767813 
H    2.46124006  -2.70002324   1.06820146 
H    1.65681469  -4.19190616  -0.23177041 
H    0.98105735   0.10153885  -5.43485740 
*
