! EnGrad PBEh-3c
%output 
xyzfile=True 
end 
%scf 
maxiter 250 
end
%output
Print[P_Hirshfeld] = 1
end
% maxcore
4000
*xyz 0 1
Lu   0.15178620  -0.40548017   0.28409167 
C    0.55413395   0.45685866   2.68232532 
C    1.71083886  -0.23998380   2.29116652 
C    2.34262417   0.50395916   1.28220752 
C    1.56138821   1.63691537   1.01297506 
C    0.47915995   1.62016358   1.90828685 
H    1.78865694   2.41551847   0.30104404 
H   -0.25326333   2.40173794   2.03254290 
H   -0.11920546   0.18208453   3.47760552 
H    2.05123508  -1.17195835   2.71723958 
H    3.26257811   0.23979040   0.78654033 
C    0.63711091  -0.16306304  -2.25678729 
C   -0.51451164  -0.96629476  -2.19166845 
C    1.19860709  -2.14004073  -1.28158374 
C    1.70375893  -0.90437103  -1.72121436 
H    0.70668446   0.81229670  -2.71388703 
C   -0.18010954  -2.17489500  -1.56846621 
H   -1.48507166  -0.74624206  -2.60592585 
H    2.73063969  -0.58057187  -1.65988618 
H    1.76051192  -2.94068552  -0.82336482 
H   -0.85579068  -2.99775012  -1.39500933 
C   -2.02683861  -1.31420443   1.12650530 
H   -2.38017828  -0.94278849   2.09241227 
H   -2.08364384  -2.41006295   1.19407658 
H   -2.79977490  -1.06630755   0.39005932 
C   -1.91782595   2.23250017  -1.11920242 
H   -2.21886313   1.12872378  -0.11470136 
H   -0.93548721   2.67241665  -1.27586441 
H   -2.59484305   3.01814535  -0.78022382 
H   -2.27431719   1.84361133  -2.07130770 
*
