! EnGrad PBEh-3c
%output 
xyzfile=True 
end 
%scf 
maxiter 250 
end
%output
Print[P_Hirshfeld] = 1
end
% maxcore
4000
*xyz 0 1
Lu   0.01363379  -0.07865812   0.05800173 
C    0.37972116   0.97529442   2.42270683 
C    1.31100204  -0.07545725   2.20549447 
C    2.28658390   0.39586117   1.28592259 
C    1.94014999   1.72134862   0.90621198 
C    0.77080179   2.08045039   1.63318293 
H    2.58742209   2.39440933   0.34063045 
H    0.28265468   3.04337660   1.57536810 
H   -0.42865970   0.96658302   3.14346144 
H    1.31302470  -1.03172172   2.70297337 
H    3.18449536  -0.13391749   1.02881888 
C    1.04068191  -0.05432391  -2.51592178 
C   -0.25873663  -0.61956951  -2.59389322 
C    0.99284242  -1.96059038  -1.23140862 
C    1.82814392  -0.90197201  -1.68902652 
H    1.42574182   0.76849482  -3.11059542 
C   -0.28408056  -1.77714118  -1.80234926 
H   -1.07230272  -0.19767907  -3.17590371 
H    2.88677165  -0.85301891  -1.56187309 
H    1.32165544  -2.80150244  -0.63879875 
H   -1.12792021  -2.45656465  -1.66789959 
C   -2.29613315  -1.51052195   1.23006023 
H   -2.15190451  -1.49772106   2.34099013 
H   -1.96258385  -2.54654182   0.97561576 
H   -3.43275977  -1.45120229   1.11393316 
C   -2.08612066   1.50647029  -0.56635945 
H   -1.91020354   0.52436953  -0.00282056 
H   -1.18551418   2.11079650  -1.02880863 
H   -2.59072149   2.16531770   0.15102018 
H   -2.76361086   1.27530467  -1.37726596 
*
