! EnGrad PBEh-3c
%output 
xyzfile=True 
end 
%scf 
maxiter 250 
end
%output
Print[P_Hirshfeld] = 1
end
% maxcore
4000
*xyz 0 1
Lu   0.08972842  -0.35958372   0.27212623 
C    0.53654516   0.51240014   2.67753027 
C    1.67779946  -0.23857077   2.29602132 
C    2.36473420   0.48252699   1.27950201 
C    1.61327839   1.65772366   1.00593813 
C    0.49091416   1.68220503   1.88367336 
H    1.86340353   2.41665772   0.29222532 
H   -0.19771885   2.47709604   1.98912683 
H   -0.15002188   0.26224894   3.45232921 
H    1.97769182  -1.16727834   2.72079386 
H    3.26727680   0.19966894   0.81099417 
C    0.68294987  -0.14930188  -2.29516986 
C   -0.50623899  -0.93527076  -2.23169652 
C    1.18431194  -2.14226580  -1.27406358 
C    1.73495525  -0.90806020  -1.72456715 
H    0.77413810   0.81802459  -2.74771133 
C   -0.19182747  -2.14583009  -1.59875843 
H   -1.44499117  -0.69191795  -2.67364570 
H    2.75372061  -0.60726666  -1.65052883 
H    1.71990055  -2.93513886  -0.80488782 
H   -0.88605066  -2.94429220  -1.42133714 
C   -2.00902255  -1.35570841   1.12670442 
H   -2.36433016  -1.00795710   2.12597899 
H   -2.07524485  -2.46035454   1.20101988 
H   -2.86203575  -1.12817584   0.44279698 
C   -2.01578973   2.07568364  -0.97391360 
H   -2.16849669   1.18139127  -0.17831097 
H   -0.94959508   2.63983893  -1.25882343 
H   -2.59161810   2.96764066  -0.71244047 
H   -2.32165642   1.80636656  -2.01078966 
*
