! EnGrad PBEh-3c
%output 
xyzfile=True 
end 
%scf 
maxiter 250 
end
%output
Print[P_Hirshfeld] = 1
end
% maxcore
4000
*xyz 0 1
Lu   0.03393251  -0.31338811   0.25496261 
C    0.52868222   0.57618833   2.65673569 
C    1.63778781  -0.21544104   2.28877060 
C    2.35243856   0.47091028   1.29042739 
C    1.66332798   1.66543220   1.01066153 
C    0.53004326   1.72349561   1.85276815 
H    1.94515621   2.42235675   0.28017108 
H   -0.15124651   2.56718746   1.94413806 
H   -0.18861106   0.34399592   3.43240286 
H    1.90313399  -1.17148220   2.72908483 
H    3.28594077   0.15253361   0.82935780 
C    0.72807739  -0.15135467  -2.32801820 
C   -0.47334701  -0.89681402  -2.27053116 
C    1.16367876  -2.12195853  -1.27329286 
C    1.74170379  -0.91814806  -1.72635091 
H    0.84647713   0.82848570  -2.78699760 
C   -0.20045436  -2.11290180  -1.63080002 
H   -1.41179718  -0.63255858  -2.74647630 
H    2.78770737  -0.63313125  -1.64022882 
H    1.68137643  -2.93678123  -0.78094440 
H   -0.92005558  -2.89166867  -1.44825702 
C   -2.01100480  -1.39546758   1.13377017 
H   -2.34251752  -1.07874461   2.15183481 
H   -2.06397386  -2.50700587   1.20415289 
H   -2.91995124  -1.19138226   0.50650259 
C   -2.05718399   1.96642284  -0.87764822 
H   -2.11732806   1.22000440  -0.23425593 
H   -1.00964312   2.57104429  -1.22045185 
H   -2.59457562   2.90379673  -0.63149854 
H   -2.37347329   1.76037706  -1.92855155 
*
