! EnGrad PBEh-3c
%output 
xyzfile=True 
end 
%scf 
maxiter 250 
end
%output
Print[P_Hirshfeld] = 1
end
% maxcore
4000
*xyz 0 1
Lu   0.03368578  -0.31061493   0.24987633 
C    0.52800794   0.58247665   2.65139658 
C    1.63111954  -0.20969657   2.28615246 
C    2.34398979   0.47217709   1.29114473 
C    1.66765407   1.66447707   1.01069109 
C    0.53994634   1.72676963   1.84764434 
H    1.95661520   2.42236533   0.28069546 
H   -0.14694616   2.57750312   1.93760089 
H   -0.19421571   0.35377246   3.43023022 
H    1.89409569  -1.17198550   2.73030335 
H    3.28774099   0.14608364   0.83160967 
C    0.73228293  -0.15254921  -2.33039740 
C   -0.46439775  -0.88898561  -2.27665043 
C    1.15999621  -2.11447267  -1.27267856 
C    1.73789486  -0.91812667  -1.72408367 
H    0.85626165   0.82806653  -2.79258895 
C   -0.20100123  -2.10794327  -1.63392761 
H   -1.40840002  -0.62450967  -2.75360485 
H    2.79132401  -0.63699613  -1.63902846 
H    1.67677491  -2.93731875  -0.77742197 
H   -0.92489819  -2.88693652  -1.45123870 
C   -2.02516754  -1.39846694   1.13833699 
H   -2.33638735  -1.08783561   2.14970899 
H   -2.05983636  -2.50670878   1.20077968 
H   -2.92188222  -1.19649126   0.51982475 
C   -2.02193561   2.01640368  -0.92438986 
H   -2.11345753   1.19291826  -0.21596791 
H   -1.04315580   2.53731501  -1.19950920 
H   -2.59873149   2.88497070  -0.61334058 
H   -2.38205582   1.74745427  -1.90657817 
*
