! EnGrad PBEh-3c
%output 
xyzfile=True 
end 
%scf 
maxiter 250 
end
%output
Print[P_Hirshfeld] = 1
end
% maxcore
4000
*xyz 0 1
Lu  -0.05575382  -0.21688585   0.18974271 
C    0.47897144   0.72164849   2.60124706 
C    1.52866509  -0.17888866   2.27832051 
C    2.34486784   0.43117170   1.28469590 
C    1.78198365   1.69642277   0.98531197 
C    0.61427169   1.86977091   1.77933007 
H    2.16843659   2.42338904   0.27563214 
H   -0.01070633   2.76116608   1.81500703 
H   -0.27979578   0.56292049   3.36153484 
H    1.70068644  -1.15164590   2.73667856 
H    3.28467074   0.04017739   0.89697759 
C    0.84708952  -0.12249082  -2.41006947 
C   -0.40579163  -0.79410353  -2.39338837 
C    1.11032086  -2.07994032  -1.24919662 
C    1.78045961  -0.91670171  -1.71124021 
H    1.04293495   0.82880903  -2.89302505 
C   -0.23353529  -2.01416752  -1.70315676 
H   -1.30462450  -0.47671154  -2.91201375 
H    2.84229408  -0.71236205  -1.61522449 
H    1.56688656  -2.91640285  -0.72628822 
H   -1.00354620  -2.75423150  -1.52099680 
C   -2.07828376  -1.48720281   1.16261500 
H   -2.27400571  -1.25244163   2.21858085 
H   -2.01843509  -2.58607838   1.17792690 
H   -3.06985146  -1.32229912   0.69784371 
C   -2.05360879   1.93968849  -0.84920527 
H   -1.98548622   1.07670999  -0.19684350 
H   -1.15184282   2.33918923  -1.08678984 
H   -2.63334929   2.69877295  -0.36603672 
H   -2.53874080   1.59144822  -1.73110316 
*
