! EnGrad PBEh-3c
%output 
xyzfile=True 
end 
%scf 
maxiter 250 
end
%output
Print[P_Hirshfeld] = 1
end
% maxcore
4000
*xyz 0 1
Lu  -0.06869768  -0.15333343   0.13400467 
C    0.43644312   0.82319568   2.53980461 
C    1.44379924  -0.14247690   2.25707276 
C    2.32768737   0.41210952   1.28381549 
C    1.85344340   1.71101704   0.95541262 
C    0.68133394   1.96702734   1.72624171 
H    2.34050993   2.41709220   0.29275392 
H    0.10411117   2.88518632   1.71647874 
H   -0.33944487   0.72949536   3.28493895 
H    1.54310457  -1.11232197   2.72868067 
H    3.25617339  -0.03520805   0.95219880 
C    0.93019146  -0.09657942  -2.45863370 
C   -0.34855554  -0.72377365  -2.48345331 
C    1.06471396  -2.03826155  -1.23852072 
C    1.80258838  -0.91143279  -1.70050760 
H    1.19665484   0.81365837  -2.98026508 
C   -0.25747910  -1.92700517  -1.74506146 
H   -1.21432757  -0.36175141  -3.02483340 
H    2.86826631  -0.77239240  -1.59593359 
H    1.47029081  -2.87931543  -0.68940108 
H   -1.05502403  -2.63747373  -1.58078350 
C   -2.15870123  -1.51627155   1.18717418 
H   -2.22450314  -1.36606506   2.27743377 
H   -1.99088134  -2.61055684   1.12068180 
H   -3.21178454  -1.39012507   0.85856533 
C   -2.08530062   1.79713833  -0.74696039 
H   -1.91043609   0.86433323  -0.11801623 
H   -1.14789394   2.25268317  -1.06014726 
H   -2.64972486   2.52978444  -0.15110347 
H   -2.65681542   1.46281894  -1.61598744 
*
