! EnGrad PBEh-3c
%output 
xyzfile=True 
end 
%scf 
maxiter 250 
end
%output
Print[P_Hirshfeld] = 1
end
% maxcore
4000
*xyz 0 1
C   -1.91842312   0.13000624  -0.13378215 
C   -1.55531788  -0.58516229  -1.26537163 
C   -0.74059146  -1.70222709  -1.15206893 
C   -0.27353637  -2.09043278   0.09488188 
C   -1.46296549  -0.27630411   1.11195605 
C   -0.61968695  -1.37017159   1.22837123 
H   -2.56863900   0.98824588  -0.24214834 
H   -1.91969877  -0.28951935  -2.23906888 
H   -0.48154562  -2.27422794  -2.03123969 
H   -0.23210830  -1.67531999   2.19125905 
H    0.36176746  -2.96096342   0.17946314 
Pd   1.42266819   1.24893829   0.01135364 
O    2.20726575   0.59447838  -1.74983006 
O    2.60744971  -0.40936382   0.11778176 
O    0.30944064   2.95057804  -0.09782238 
C    0.18934263   2.97600511   1.15041735 
O    0.75440979   2.07221298   1.82219348 
H   -1.80841537   0.35159729   2.13896630 
C    2.75688309  -0.34801617  -1.12768507 
H    3.37389830  -1.08529164  -1.65395242 
H   -0.40219641   3.75492797   1.64632730 
*
