! EnGrad PBEh-3c
%output 
xyzfile=True 
end 
%scf 
maxiter 250 
end
%output
Print[P_Hirshfeld] = 1
end
% maxcore
4000
*xyz 0 1
C   -1.91849257   0.13912541  -0.12930906 
C   -1.58644108  -0.59792365  -1.25299386 
C   -0.78853111  -1.72456909  -1.14199237 
C   -0.30155973  -2.09994741   0.09857652 
C   -1.43926256  -0.25644789   1.10943123 
C   -0.61847361  -1.36557335   1.22815355 
H   -2.54883900   1.01377714  -0.23277792 
H   -1.95593025  -0.29510048  -2.21656171 
H   -0.55527512  -2.31194202  -2.01986858 
H   -0.21429764  -1.65880535   2.18870268 
H    0.32227184  -2.97139545   0.19043581 
Pd   1.44665171   1.27392654   0.03686057 
O    2.21628550   0.61900250  -1.72513200 
O    2.60654374  -0.40146879   0.13020405 
O    0.31393473   2.95010160  -0.10006549 
C    0.18442672   2.96062998   1.15077650 
O    0.74454788   2.04881460   1.81007573 
H   -1.71428447   0.29584748   1.99431743 
C    2.78327540  -0.32181776  -1.11151649 
H    3.41706536  -1.04562245  -1.64215727 
H   -0.40303059   3.74804356   1.63922029 
*
