! EnGrad PBEh-3c
%output 
xyzfile=True 
end 
%scf 
maxiter 250 
end
%output
Print[P_Hirshfeld] = 1
end
% maxcore
4000
*xyz 0 1
C   -1.91886759   0.13967639  -0.13649597 
C   -1.60139051  -0.60146745  -1.26238835 
C   -0.80585342  -1.73304940  -1.13970670 
C   -0.30577113  -2.11641809   0.09735104 
C   -1.43220332  -0.25690940   1.10209622 
C   -0.61376484  -1.37117280   1.22289165 
H   -2.54213743   1.02145573  -0.21649590 
H   -1.97637087  -0.28953304  -2.23037026 
H   -0.57685751  -2.32104858  -2.01553991 
H   -0.22038746  -1.64667647   2.19269427 
H    0.32568652  -2.99216230   0.19648032 
Pd   1.45708995   1.28408833   0.03880757 
O    2.21028250   0.62255224  -1.71635885 
O    2.61848578  -0.39228905   0.14203047 
O    0.32256761   2.95801820  -0.10516962 
C    0.18564764   2.95468290   1.14607189 
O    0.73947626   2.03662139   1.80026543 
H   -1.68748223   0.30599978   1.98069443 
C    2.78238388  -0.31460563  -1.10092009 
H    3.42155323  -1.02464564  -1.63380925 
H   -0.39890299   3.73704505   1.64400589 
*
