! EnGrad PBEh-3c
%output 
xyzfile=True 
end 
%scf 
maxiter 250 
end
%output
Print[P_Hirshfeld] = 1
end
% maxcore
4000
*xyz 0 1
C   -1.91728061   0.13756005  -0.13304511 
C   -1.60385392  -0.60443915  -1.26408729 
C   -0.80954209  -1.73890448  -1.14439427 
C   -0.30889196  -2.11909974   0.09504767 
C   -1.43157069  -0.25036163   1.10850380 
C   -0.61865590  -1.36916342   1.22162560 
H   -2.53819124   1.01993875  -0.21508376 
H   -1.97916285  -0.29736788  -2.23358032 
H   -0.58184328  -2.32982412  -2.02355744 
H   -0.22198927  -1.64560307   2.18914105 
H    0.32144571  -2.99622952   0.18867514 
Pd   1.45399675   1.28349084   0.03998656 
O    2.20750305   0.62109269  -1.71440035 
O    2.62343924  -0.38387428   0.14553347 
O    0.32781786   2.96479402  -0.10413002 
C    0.18691291   2.95708537   1.14567426 
O    0.73943002   2.03521369   1.79688892 
H   -1.68109274   0.32005868   1.99080486 
C    2.78812194  -0.31008055  -1.09809954 
H    3.42352176  -1.02588340  -1.63358204 
H   -0.40069220   3.73359232   1.64808532 
*
