! EnGrad PBEh-3c
%output 
xyzfile=True 
end 
%scf 
maxiter 250 
end
%output
Print[P_Hirshfeld] = 1
end
% maxcore
4000
*xyz 0 1
C   -1.91618297   0.13332508  -0.12395998 
C   -1.56197680  -0.59354434  -1.26675138 
C   -0.75665370  -1.71278648  -1.15209513 
C   -0.28086375  -2.09613241   0.08915912 
C   -1.48162074  -0.21511436   1.19663769 
C   -0.62408100  -1.36089296   1.23031511 
H   -2.55949352   0.99436137  -0.24476520 
H   -1.93340050  -0.29512238  -2.24027768 
H   -0.50813490  -2.29271082  -2.03277593 
H   -0.22153944  -1.67210707   2.18519589 
H    0.34958587  -2.97245977   0.17763527 
Pd   1.42234526   1.25932138   0.03160365 
O    2.21562425   0.60386262  -1.74405628 
O    2.60251845  -0.40726669   0.11841492 
O    0.31048553   2.94780553  -0.10274038 
C    0.18966666   2.96760700   1.15863963 
O    0.75132725   2.06878561   1.81592595 
H   -1.76060738   0.30050058   2.03974738 
C    2.77562670  -0.34030122  -1.12560279 
H    3.39242074  -1.07534291  -1.65222572 
H   -0.40665369   3.75707506   1.64309589 
*
