! EnGrad PBEh-3c
%output 
xyzfile=True 
end 
%scf 
maxiter 250 
end
%output
Print[P_Hirshfeld] = 1
end
% maxcore
4000
*xyz 0 1
C   -1.91328136   0.13594882  -0.09803738 
C   -1.57196447  -0.59119759  -1.24997848 
C   -0.76810138  -1.72164766  -1.15341424 
C   -0.29328100  -2.08843491   0.10017962 
C   -1.45269510  -0.25126204   1.12800566 
C   -0.63749620  -1.34040578   1.23770446 
H   -2.55353474   0.99987128  -0.24624236 
H   -1.94283617  -0.29741871  -2.23578911 
H   -0.52724379  -2.30543678  -2.03330999 
H   -0.21473373  -1.67014109   2.18150845 
H    0.33940483  -2.97672321   0.17927894 
Pd   1.42850860   1.26587204   0.03929230 
O    2.21934976   0.60897277  -1.73662544 
O    2.60087559  -0.40569798   0.12036779 
O    0.31108726   2.94630543  -0.09685945 
C    0.18487844   2.96943894   1.15043424 
O    0.75166037   2.05838130   1.81615820 
H   -1.74574974   0.30324182   2.03096805 
C    2.78178984  -0.32894659  -1.12074000 
H    3.40618867  -1.06760680  -1.65086200 
H   -0.40668439   3.75519763   1.64027177 
*
