! EnGrad PBEh-3c
%output 
xyzfile=True 
end 
%scf 
maxiter 250 
end
%output
Print[P_Hirshfeld] = 1
end
% maxcore
4000
*xyz 0 1
C   -1.92575942   0.14180693  -0.16020809 
C   -1.58712696  -0.59414096  -1.25419229 
C   -0.78817771  -1.71525649  -1.13172296 
C   -0.29829911  -2.10075767   0.10220326 
C   -1.44226981  -0.25438114   1.11514013 
C   -0.60068972  -1.39164905   1.22378156 
H   -2.54821712   1.00979367  -0.23037253 
H   -1.95015187  -0.29563205  -2.20508154 
H   -0.54922409  -2.31121826  -2.02351123 
H   -0.21826832  -1.65690056   2.18694176 
H    0.31793027  -2.95956532   0.19185554 
Pd   1.44863241   1.27015016   0.03113224 
O    2.21379520   0.61980862  -1.72682141 
O    2.60651127  -0.40232299   0.13120037 
O    0.31289608   2.95073613  -0.10169690 
C    0.18591227   2.95863740   1.15622718 
O    0.74264027   2.05372543   1.80904640 
H   -1.72164855   0.30066467   2.00609221 
C    2.78106330  -0.32535776  -1.11245624 
H    3.41382557  -1.04737482  -1.64223609 
H   -0.40218599   3.74807698   1.63884437 
*
