! EnGrad PBEh-3c
%output 
xyzfile=True 
end 
%scf 
maxiter 250 
end
%output
Print[P_Hirshfeld] = 1
end
% maxcore
4000
*xyz 0 1
C   -1.92071216   0.14001254  -0.13606315 
C   -1.58373609  -0.59589096  -1.25396881 
C   -0.78465481  -1.72006918  -1.13966563 
C   -0.29843568  -2.09884553   0.09922531 
C   -1.44314963  -0.25435647   1.11569399 
C   -0.61460360  -1.37156552   1.22856322 
H   -2.54961914   1.00982062  -0.23423318 
H   -1.95104137  -0.29573398  -2.21492319 
H   -0.54772554  -2.31016230  -2.02341742 
H   -0.21593942  -1.66013754   2.18694024 
H    0.32341362  -2.96712586   0.18908819 
Pd   1.44424802   1.27086557   0.03474789 
O    2.21585004   0.61747694  -1.72787188 
O    2.60551111  -0.40264625   0.12875203 
O    0.31293726   2.94964475  -0.10004012 
C    0.18499817   2.96161892   1.15270292 
O    0.74515699   2.05241321   1.81101898 
H   -1.72298983   0.29888055   2.00544249 
C    2.78196335  -0.32458127  -1.11357491 
H    3.41371837  -1.05032353  -1.64374551 
H   -0.40332780   3.74937309   1.63924098 
*
