! EnGrad PBEh-3c
%output 
xyzfile=True 
end 
%scf 
maxiter 250 
end
%output
Print[P_Hirshfeld] = 1
end
% maxcore
4000
*xyz 0 1
Pd   0.41716888   0.12538204  -0.25002165 
O    1.96730667   1.39007869   0.65974015 
C    1.77718224   2.57149383   0.36204750 
O    0.66658167   2.90821087  -0.20509024 
C    2.77480628   3.65565889   0.63000826 
H    2.33932782   4.56310843   1.04663914 
H    3.23827101   3.94666399  -0.31536430 
H    3.55561674   3.29971113   1.29660837 
N   -1.37410970  -0.78708417  -0.93958592 
C   -1.23598648  -1.98543025  -1.79086101 
H   -0.68632337  -1.82047214  -2.70977450 
H   -2.18252214  -2.37247551  -2.20112441 
H   -0.68370735  -2.73873932  -1.23525429 
C   -2.00791972   0.19283923  -1.83483411 
H   -2.12311740   1.14720731  -1.33354864 
H   -3.00509558  -0.12275569  -2.17003884 
H   -1.42764375   0.37972763  -2.73386451 
C   -1.58592169  -1.12624318   1.45150191 
C   -1.53368159  -2.19623719   2.33997404 
C   -1.32211215  -2.03209879   3.69727961 
C   -0.97020818  -0.79367479   4.18027040 
C   -1.19451651   0.30260051   3.36548907 
C   -1.46579102   0.13949147   2.02096594 
H   -0.78610495  -0.64694739   5.23766849 
H   -1.10485436   1.27192233   3.84079145 
H   -2.02042762  -3.13570514   2.09429946 
H   -1.46411665  -2.85409828   4.39025057 
H   -1.73869875   3.64355025   1.19519458 
C   -2.32404229  -1.15901279   0.14400039 
H   -3.20233865  -0.49814247   0.19805917 
H   -2.82245240  -2.13412835   0.05542222 
O    1.75786851   0.08805026  -1.68428928 
C    2.30102849  -0.64996185  -2.56743434 
O    1.60304599  -1.32310897  -3.30529331 
C    3.68219293  -0.36061253  -3.13150216 
H    4.16184799  -1.27105578  -3.49780107 
H    4.37455108   0.00179377  -2.37017426 
H    3.64489046   0.38049395  -3.93033942 
*
