! EnGrad PBEh-3c
%output 
xyzfile=True 
end 
%scf 
maxiter 250 
end
%output
Print[P_Hirshfeld] = 1
end
% maxcore
4000
*xyz 0 1
Pd   0.37654214   0.32502427  -0.20220466 
O    1.81651439   1.28047545   0.64529030 
C    1.58909840   2.62886357   0.30645837 
O    0.57629375   2.97630113  -0.21538585 
C    2.75769577   3.54374473   0.63609440 
H    2.28955557   4.41659392   1.03867699 
H    3.20823069   3.84005097  -0.28816055 
H    3.54018617   3.21731488   1.29810382 
N   -1.34832729  -0.78302584  -1.01055759 
C   -1.15539113  -2.01085419  -1.79829170 
H   -0.51557533  -1.78165610  -2.62868699 
H   -2.14398266  -2.40101214  -2.07574728 
H   -0.70866891  -2.81695710  -1.24239638 
C   -2.01691891   0.22703745  -1.84763664 
H   -2.13702153   1.15706273  -1.31691339 
H   -3.00154287  -0.10533337  -2.18599533 
H   -1.38667352   0.37970885  -2.70645044 
C   -1.75549734  -1.00481126   1.52961336 
C   -1.77796092  -2.15092789   2.36435388 
C   -1.39264782  -2.00790139   3.69273461 
C   -1.08264383  -0.72445962   4.20055747 
C   -1.02792032   0.41218908   3.36930501 
C   -1.20329433   0.15451644   2.03092391 
H   -0.83108048  -0.63164289   5.26920882 
H   -0.91337973   1.41130924   3.77364260 
H   -1.93209908  -3.14314276   1.91411774 
H   -1.29510828  -2.88908381   4.32999045 
H   -1.59281843   3.15236865   1.20906305 
C   -2.29224024  -1.11535368   0.15281463 
H   -3.11419070  -0.39473494   0.07742458 
H   -2.67098027  -2.12121402  -0.08248175 
O    1.90790879   0.13512655  -1.60299964 
C    2.19667337  -0.64100859  -2.63762228 
O    1.51545038  -1.49318189  -3.17338336 
C    3.65095909  -0.33765755  -3.09681356 
H    4.05256603  -1.24135536  -3.51476419 
H    4.22470685   0.07767693  -2.30468547 
H    3.64157835   0.41099697  -3.92007976 
*
