! EnGrad PBEh-3c
%output 
xyzfile=True 
end 
%scf 
maxiter 250 
end
%output
Print[P_Hirshfeld] = 1
end
% maxcore
4000
*xyz 0 1
Pd   0.42509518   0.30700965  -0.18176726 
O    1.83613790   1.28021247   0.63491757 
C    1.65841769   2.61300392   0.32534722 
O    0.58462504   2.95781248  -0.21784140 
C    2.77010220   3.56646058   0.63683365 
H    2.30848462   4.46020295   1.03816820 
H    3.21873675   3.87750979  -0.28887428 
H    3.55132818   3.25883743   1.29479137 
N   -1.35668059  -0.78919494  -0.99337810 
C   -1.17338093  -2.01281387  -1.80469580 
H   -0.55109320  -1.78474102  -2.65974353 
H   -2.17653891  -2.40817389  -2.10198024 
H   -0.70982195  -2.80458003  -1.24018587 
C   -2.02105052   0.22468931  -1.84239810 
H   -2.13142066   1.15601629  -1.32168578 
H   -3.01701425  -0.11434597  -2.18741928 
H   -1.39078255   0.37193064  -2.71813798 
C   -1.73855055  -1.03262302   1.50837944 
C   -1.72704754  -2.17716147   2.36404901 
C   -1.35782909  -2.02676006   3.69370710 
C   -1.06371820  -0.75156353   4.20288126 
C   -1.06620081   0.39532015   3.37127862 
C   -1.25610155   0.14482769   2.03713205 
H   -0.80971321  -0.63628119   5.25855418 
H   -0.98270004   1.38514705   3.79735624 
H   -1.96007876  -3.15998327   1.95838700 
H   -1.35252063  -2.88572216   4.35061822 
H   -1.63876894   3.33877025   1.20045036 
C   -2.30533418  -1.13650258   0.15232519 
H   -3.12807449  -0.41516605   0.12152884 
H   -2.71420442  -2.13678515  -0.05005919 
O    1.88713093   0.13732013  -1.63729531 
C    2.22789258  -0.64214505  -2.64861911 
O    1.53225890  -1.48272069  -3.21044824 
C    3.67415365  -0.33916012  -3.08332716 
H    4.07260320  -1.23628192  -3.51428372 
H    4.27375569   0.06678344  -2.33114152 
H    3.63937635   0.40178282  -3.92252927 
*
