! EnGrad PBEh-3c
%output 
xyzfile=True 
end 
%scf 
maxiter 250 
end
%output
Print[P_Hirshfeld] = 1
end
% maxcore
4000
*xyz 0 1
Pd   0.45410889   0.25735813  -0.17228313 
O    1.86244758   1.34792214   0.62272428 
C    1.70290367   2.55185377   0.34257467 
O    0.63799181   2.93098756  -0.19980241 
C    2.75460873   3.59101840   0.63169326 
H    2.32598014   4.51788943   1.04439660 
H    3.23708914   3.91860266  -0.30643466 
H    3.56825717   3.28464111   1.30215268 
N   -1.37940849  -0.79277655  -0.95643841 
C   -1.20792627  -2.01244353  -1.81044687 
H   -0.59060514  -1.79221104  -2.69523028 
H   -2.19519752  -2.40310059  -2.13519117 
H   -0.69959682  -2.78980290  -1.22802014 
C   -2.02100169   0.20826329  -1.84800372 
H   -2.12636773   1.16405085  -1.32069983 
H   -3.02375853  -0.12435044  -2.18457349 
H   -1.39677186   0.36972339  -2.73339609 
C   -1.70046731  -1.08604717   1.49562348 
C   -1.65816738  -2.18659670   2.35722358 
C   -1.31933904  -2.02917760   3.69583020 
C   -1.04162142  -0.77897106   4.20350059 
C   -1.10659084   0.35522364   3.38138426 
C   -1.32884683   0.15269017   2.03398495 
H   -0.79352246  -0.64087812   5.23737131 
H   -1.04449723   1.35013287   3.81823502 
H   -1.99327003  -3.16464665   2.01044032 
H   -1.41272895  -2.87701915   4.37098356 
H   -1.68060550   3.50020181   1.19382168 
C   -2.31415814  -1.14740406   0.12236713 
H   -3.14667407  -0.44454513   0.16436146 
H   -2.76057047  -2.14264060  -0.00620906 
O    1.85939110   0.11986619  -1.68563309 
C    2.24442196  -0.63068267  -2.63943721 
O    1.56724580  -1.44871700  -3.24187012 
C    3.65478397  -0.33843819  -3.10960595 
H    4.10923191  -1.24481214  -3.51535906 
H    4.34416640   0.06045959  -2.33343860 
H    3.63517315   0.38146229  -3.91201493 
*
