! EnGrad PBEh-3c
%output 
xyzfile=True 
end 
%scf 
maxiter 250 
end
%output
Print[P_Hirshfeld] = 1
end
% maxcore
4000
*xyz 0 1
Pd   0.41937353   0.16681783  -0.20752570 
O    1.97846745   1.29984381   0.67068728 
C    1.64177664   2.64735146   0.30241942 
O    0.72728813   2.89540213  -0.17133560 
C    2.79659901   3.64669388   0.63582322 
H    2.33354529   4.55662544   1.04711756 
H    3.23921694   3.94306882  -0.31424123 
H    3.56163360   3.30137006   1.29790368 
N   -1.40083982  -0.81156931  -1.00165518 
C   -1.21265810  -2.01327369  -1.80448282 
H   -0.66380564  -1.80905429  -2.69769859 
H   -2.18649911  -2.37168908  -2.17287016 
H   -0.69310193  -2.74956222  -1.23073695 
C   -2.01883778   0.22103314  -1.84044086 
H   -2.12294354   1.15079158  -1.33349028 
H   -2.99952604  -0.13156417  -2.16716898 
H   -1.41479075   0.36888973  -2.73339947 
C   -1.62883687  -1.08363690   1.46376429 
C   -1.57677767  -2.22055740   2.35694446 
C   -1.30175415  -2.04384801   3.69129182 
C   -1.00414808  -0.79276783   4.19257081 
C   -1.16357657   0.33854415   3.35484876 
C   -1.42651322   0.12933320   2.03567099 
H   -0.78196681  -0.64655832   5.23561816 
H   -1.09624142   1.27476535   3.82899490 
H   -2.01615956  -3.13862035   2.07712008 
H   -1.46283144  -2.85713687   4.38461691 
H   -1.71996377   3.62445015   1.19123777 
C   -2.32057950  -1.16516688   0.17061452 
H   -3.18173189  -0.48184894   0.19410055 
H   -2.80799309  -2.13353988   0.03490980 
O    1.79618558   0.13289309  -1.64767790 
C    2.23743062  -0.64544631  -2.65827962 
O    1.61143955  -1.39269574  -3.28510164 
C    3.71367993  -0.35500208  -3.08497763 
H    4.15065136  -1.26037707  -3.51136355 
H    4.37041875   0.02016204  -2.37422692 
H    3.62663719   0.38430824  -3.93023440 
*
