! EnGrad PBEh-3c
%output 
xyzfile=True 
end 
%scf 
maxiter 250 
end
%output
Print[P_Hirshfeld] = 1
end
% maxcore
4000
*xyz 0 1
Pd   0.44932487   0.27281619  -0.17326248 
O    1.85259049   1.32389294   0.62532577 
C    1.69799069   2.57314209   0.33953859 
O    0.61911593   2.93878031  -0.20656101 
C    2.75774487   3.58203838   0.63288433 
H    2.32152562   4.50283800   1.04269446 
H    3.23225621   3.90801687  -0.30132131 
H    3.56384243   3.27892749   1.29982892 
N   -1.37203454  -0.79109133  -0.96472305 
C   -1.19829265  -2.01252102  -1.80877989 
H   -0.57917013  -1.78983450  -2.68669902 
H   -2.19208290  -2.40590916  -2.12635961 
H   -0.70279656  -2.79424085  -1.23148565 
C   -2.02116062   0.21298249  -1.84559529 
H   -2.12760546   1.16159279  -1.32112100 
H   -3.02357405  -0.12177274  -2.18610114 
H   -1.39469975   0.37013307  -2.72988287 
C   -1.71237937  -1.07112974   1.49757411 
C   -1.67741431  -2.18572360   2.35945656 
C   -1.32932009  -2.02926957   3.69572064 
C   -1.04759767  -0.77256071   4.20436038 
C   -1.09567642   0.36705182   3.37890041 
C   -1.30820532   0.15042990   2.03511176 
H   -0.79755593  -0.63959623   5.24279365 
H   -1.02876065   1.36063746   3.81315250 
H   -1.98430615  -3.16409613   1.99622330 
H   -1.39686409  -2.87947783   4.36552031 
H   -1.66989027   3.45940673   1.19544250 
C   -2.31233707  -1.14518462   0.13022868 
H   -3.14120874  -0.43623430   0.15347103 
H   -2.74817547  -2.14184065  -0.01814699 
O    1.86680062   0.12525049  -1.67308986 
C    2.24263569  -0.63526671  -2.64353567 
O    1.55669157  -1.45838820  -3.23323503 
C    3.66055776  -0.33863240  -3.10069950 
H    4.09846028  -1.24169220  -3.51497090 
H    4.32503088   0.06233811  -2.33365431 
H    3.63660939   0.38733561  -3.91541232 
*
