! EnGrad PBEh-3c
%output 
xyzfile=True 
end 
%scf 
maxiter 250 
end
%output
Print[P_Hirshfeld] = 1
end
% maxcore
4000
*xyz 0 1
Pd   0.43033508   0.18715554  -0.18783578 
O    1.95945464   1.30122142   0.66094863 
C    1.71934574   2.60211932   0.34973412 
O    0.63801266   2.92594668  -0.21609484 
C    2.78982011   3.64523651   0.63383629 
H    2.33397879   4.55166815   1.04686380 
H    3.24108439   3.94098260  -0.31416023 
H    3.56664307   3.29764908   1.30140369 
N   -1.40894460  -0.81624548  -1.00809218 
C   -1.21333593  -2.01994242  -1.81199411 
H   -0.64839534  -1.80411464  -2.69650025 
H   -2.18704055  -2.37480715  -2.16041856 
H   -0.69424610  -2.75971148  -1.22581984 
C   -2.02214222   0.21952947  -1.84904721 
H   -2.12337188   1.15851268  -1.32917777 
H   -3.00020301  -0.13310537  -2.16812276 
H   -1.40947563   0.36572936  -2.73319401 
C   -1.64709937  -1.08766837   1.47958328 
C   -1.59353261  -2.20706462   2.35690101 
C   -1.29630879  -2.04738281   3.69141488 
C   -1.01998038  -0.78374488   4.18850655 
C   -1.14765972   0.33640162   3.36033050 
C   -1.40585847   0.13443529   2.04125098 
H   -0.78075721  -0.64598990   5.23652378 
H   -1.08901089   1.28822609   3.82647176 
H   -2.01723531  -3.14907563   2.06428985 
H   -1.45940645  -2.86051043   4.38264591 
H   -1.71121012   3.61009082   1.19018255 
C   -2.32107857  -1.16223117   0.16217353 
H   -3.17126255  -0.47412377   0.19115806 
H   -2.79996393  -2.13482786   0.02657322 
O    1.81808359   0.13780021  -1.65623253 
C    2.23365520  -0.61262590  -2.65269123 
O    1.59511788  -1.44062581  -3.29093179 
C    3.70157702  -0.35230822  -3.09284120 
H    4.14542280  -1.25530416  -3.51625635 
H    4.37678996   0.03550861  -2.36077409 
H    3.62224501   0.38047580  -3.92215376 
*
