! EnGrad PBEh-3c
%output 
xyzfile=True 
end 
%scf 
maxiter 250 
end
%output
Print[P_Hirshfeld] = 1
end
% maxcore
4000
*xyz 0 1
Pd   0.44327748   0.21452902  -0.17980036 
O    1.91268798   1.36144833   0.63613180 
C    1.69224558   2.54310537   0.34133170 
O    0.66846026   2.92006004  -0.19366914 
C    2.77121073   3.62716083   0.63291400 
H    2.33260365   4.54091125   1.04604256 
H    3.24167264   3.93463744  -0.31322668 
H    3.57009475   3.29256763   1.30355666 
N   -1.39818107  -0.80437844  -0.97467754 
C   -1.21863192  -2.01573820  -1.81323756 
H   -0.62392184  -1.79933437  -2.70056046 
H   -2.19095167  -2.38728160  -2.15157676 
H   -0.69432725  -2.77374494  -1.22414069 
C   -2.02111800   0.20831226  -1.85254936 
H   -2.12441203   1.16447055  -1.32336994 
H   -3.01164241  -0.12955261  -2.17547551 
H   -1.40447724   0.36783744  -2.73450788 
C   -1.66681721  -1.10122535   1.49227452 
C   -1.61613849  -2.18972606   2.35282618 
C   -1.30304182  -2.03663895   3.69398403 
C   -1.02877413  -0.78180825   4.19218596 
C   -1.13127941   0.33437923   3.37582749 
C   -1.37749644   0.14727218   2.03530291 
H   -0.78530001  -0.64399921   5.23485563 
H   -1.07338327   1.31626965   3.82502914 
H   -2.01039628  -3.15897974   2.04325611 
H   -1.44336105  -2.86836022   4.37993686 
H   -1.70037297   3.57278232   1.19122967 
C   -2.31864661  -1.15403691   0.13371744 
H   -3.16135678  -0.46343505   0.18255689 
H   -2.78589800  -2.13916238   0.01620363 
O    1.83837817   0.12213113  -1.68392877 
C    2.23203056  -0.62114251  -2.64034478 
O    1.59164864  -1.43418629  -3.26616585 
C    3.66978597  -0.34366656  -3.11416210 
H    4.13319610  -1.25218177  -3.51602696 
H    4.37253419   0.04893846  -2.34284622 
H    3.62849834   0.37549966  -3.91205302 
*
