! EnGrad PBEh-3c
%output 
xyzfile=True 
end 
%scf 
maxiter 250 
end
%output
Print[P_Hirshfeld] = 1
end
% maxcore
4000
*xyz 0 1
Pd   0.45011915   0.23775265  -0.17527388 
O    1.88496009   1.35439020   0.62850343 
C    1.69300231   2.55042988   0.33871747 
O    0.65885566   2.92297492  -0.19321614 
C    2.76077547   3.60628280   0.63212860 
H    2.32920455   4.52965338   1.04538716 
H    3.23974441   3.92677716  -0.31009938 
H    3.56984854   3.28889654   1.30312362 
N   -1.38802939  -0.79758718  -0.96198887 
C   -1.21373713  -2.01372532  -1.81180768 
H   -0.60569198  -1.79540258  -2.69887144 
H   -2.19415043  -2.39639889  -2.14321162 
H   -0.69696182  -2.78269029  -1.22591654 
C   -2.02100993   0.20756242  -1.85012963 
H   -2.12537755   1.16461131  -1.32167198 
H   -3.01908235  -0.12686311  -2.18073330 
H   -1.40014408   0.36894913  -2.73449571 
C   -1.68515347  -1.09458652   1.49387482 
C   -1.63833381  -2.18826151   2.35513058 
C   -1.31114897  -2.03207958   3.69517133 
C   -1.03549434  -0.78126976   4.19916081 
C   -1.11821044   0.34496436   3.37964796 
C   -1.35158718   0.15111685   2.03410304 
H   -0.78963007  -0.64234001   5.23530068 
H   -1.05861545   1.33498787   3.82179287 
H   -2.00148013  -3.16239324   2.02585621 
H   -1.42750395  -2.87313992   4.37541299 
H   -1.69019027   3.53581164   1.19249637 
C   -2.31614278  -1.15039290   0.12542262 
H   -3.15340720  -0.45344095   0.17341829 
H   -2.77266660  -2.14141758   0.00470195 
O    1.84967759   0.12004132  -1.68659237 
C    2.23944555  -0.62743238  -2.64036984 
O    1.57931782  -1.44024328  -3.25231689 
C    3.65960862  -0.34046415  -3.11276723 
H    4.12053761  -1.24833065  -3.51565914 
H    4.35869785   0.05555725  -2.33710292 
H    3.63233952   0.37809708  -3.91147758 
*
