! EnGrad PBEh-3c
%output 
xyzfile=True 
end 
%scf 
maxiter 250 
end
%output
Print[P_Hirshfeld] = 1
end
% maxcore
4000
*xyz -1 1
Pd  -1.94562405  -1.48450684   0.46885822 
Cl  -2.97142730  -3.31047069  -0.53250557 
Cl   0.08222604  -5.09902992   0.27921597 
Cl  -3.88711439  -1.34567109   1.89647781 
N   -1.08759791   0.15179669   1.36020980 
C   -1.44542869   0.74853192   2.49037401 
C   -0.87971429   1.95195070   2.91068989 
C    0.08969698   2.54155648   2.15048770 
C   -0.10380267   0.70926015   0.60598544 
C    0.50958477   1.92568652   0.96388788 
H    0.54279424   3.48089972   2.45906900 
H   -2.20777899   0.24381255   3.06236795 
H   -1.22303322   2.40262912   3.83947811 
C    0.29151228  -0.00981541  -0.58170225 
C    1.51133422   2.45371369   0.09758614 
C    1.87123108   1.80669640  -1.03124637 
C    1.28591374   0.56205654  -1.40191401 
H    1.98213034   3.39736944   0.36522719 
H    2.63419763   2.23051000  -1.67554942 
C   -0.40421512  -1.23704396  -0.82041954 
C    1.66110755  -0.14987289  -2.55527003 
C    0.05215529  -1.87590006  -2.01526752 
C    1.06113492  -1.35235030  -2.84589483 
H    2.42208444   0.25852918  -3.21245680 
H    1.36522667  -1.89593393  -3.73380934 
H   -0.76249549  -4.30524244  -0.21262566 
H   -0.44371583  -2.79821373  -2.32847735 
*
