! EnGrad PBEh-3c
%output 
xyzfile=True 
end 
%scf 
maxiter 250 
end
%output
Print[P_Hirshfeld] = 1
end
% maxcore
4000
*xyz -1 1
Pd  -1.92603133  -1.48038765   0.43795398 
Cl  -2.95002234  -3.30942141  -0.53570916 
Cl   0.03837303  -5.05856913   0.27895779 
Cl  -3.89295195  -1.32485132   1.89155148 
N   -1.08192987   0.15223060   1.35948844 
C   -1.43978066   0.73493237   2.48926773 
C   -0.87993771   1.94557918   2.91732877 
C    0.09453184   2.54282293   2.14661726 
C   -0.10031087   0.70457795   0.60266044 
C    0.50724201   1.92172733   0.96426421 
H    0.54222738   3.47681428   2.45686097 
H   -2.20880550   0.23745187   3.06272689 
H   -1.21899667   2.39482303   3.83847890 
C    0.28154272  -0.01566602  -0.56862885 
C    1.51080205   2.45874476   0.09831284 
C    1.87078432   1.80961530  -1.03394710 
C    1.28563625   0.55295522  -1.40783223 
H    1.97704629   3.39625678   0.36385611 
H    2.62953355   2.23317069  -1.67788666 
C   -0.41644013  -1.24136193  -0.82544144 
C    1.66537554  -0.14395592  -2.55510381 
C    0.03727515  -1.87464459  -1.99395516 
C    1.05769763  -1.35099491  -2.84029711 
H    2.42103840   0.26297234  -3.21294876 
H    1.36854951  -1.89439174  -3.73696687 
H   -0.73737733  -4.32998582  -0.18722174 
H   -0.43408472  -2.79879110  -2.32784619 
*
