! EnGrad PBEh-3c
%output 
xyzfile=True 
end 
%scf 
maxiter 250 
end
%output
Print[P_Hirshfeld] = 1
end
% maxcore
4000
*xyz -1 1
Pd  -1.94394025  -1.48221722   0.45077870 
Cl  -2.94904798  -3.30857973  -0.53898752 
Cl   0.08614923  -5.10267052   0.31003409 
Cl  -3.88713604  -1.32147013   1.88534084 
N   -1.07586512   0.15527174   1.35798319 
C   -1.43964308   0.73320030   2.48616230 
C   -0.87895102   1.94383383   2.91799565 
C    0.09389919   2.54207542   2.14762579 
C   -0.10011949   0.70367269   0.60264817 
C    0.50706061   1.91969894   0.96321236 
H    0.54207548   3.47671255   2.45663212 
H   -2.20903906   0.23556878   3.06317588 
H   -1.21821800   2.39338465   3.83840114 
C    0.27730545  -0.01275482  -0.56380092 
C    1.51047615   2.45988979   0.09889519 
C    1.86963299   1.80805817  -1.03425847 
C    1.28081856   0.54789219  -1.40430509 
H    1.97642435   3.39668367   0.36362434 
H    2.62912675   2.23391609  -1.67874396 
C   -0.39341038  -1.23624210  -0.84697143 
C    1.66504486  -0.14503901  -2.55691496 
C    0.03332758  -1.87797338  -1.99378707 
C    1.05334592  -1.35103023  -2.83321610 
H    2.42152935   0.26396898  -3.21373050 
H    1.36699484  -1.89349601  -3.73413816 
H   -0.78464710  -4.28425982  -0.21309873 
H   -0.43187034  -2.79644536  -2.32639961 
*
