! EnGrad PBEh-3c
%output 
xyzfile=True 
end 
%scf 
maxiter 250 
end
%output
Print[P_Hirshfeld] = 1
end
% maxcore
4000
*xyz -1 1
Pd  -1.94529279  -1.47943064   0.44400500 
Cl  -2.93592436  -3.30852290  -0.54436914 
Cl   0.08516435  -5.10125403   0.32482357 
Cl  -3.88504149  -1.30804332   1.87784120 
N   -1.07235308   0.15262430   1.35619593 
C   -1.43673088   0.72916600   2.48749012 
C   -0.87462384   1.93820476   2.91603454 
C    0.09114477   2.53756609   2.14902018 
C   -0.09863115   0.70382971   0.60473310 
C    0.50886803   1.91920142   0.96147625 
H    0.54244051   3.47588079   2.45537196 
H   -2.20892647   0.23064793   3.06205229 
H   -1.21642677   2.38881436   3.83998135 
C    0.27874342  -0.01348877  -0.56676108 
C    1.50807313   2.45817913   0.09722394 
C    1.86595700   1.80569242  -1.03443835 
C    1.27691112   0.54719515  -1.39755311 
H    1.97426911   3.39871003   0.36344685 
H    2.62659696   2.23576890  -1.68103247 
C   -0.39443252  -1.23179101  -0.84803847 
C    1.66263146  -0.14862834  -2.55755236 
C    0.03428877  -1.87950224  -1.99736154 
C    1.04988987  -1.35132900  -2.82819858 
H    2.42179188   0.26717040  -3.21492813 
H    1.36549559  -1.89080513  -3.72980773 
H   -0.79400291  -4.27607709  -0.21049237 
H   -0.42786878  -2.79774042  -2.32433491 
*
