! EnGrad PBEh-3c
%output 
xyzfile=True 
end 
%scf 
maxiter 250 
end
%output
Print[P_Hirshfeld] = 1
end
% maxcore
4000
*xyz -1 1
Pd  -1.94980847  -1.47222762   0.43700202 
Cl  -2.91282214  -3.30985491  -0.55592777 
Cl   0.07819139  -5.09314209   0.34519971 
Cl  -3.87898003  -1.28598550   1.86402908 
N   -1.06986001   0.14716472   1.35624540 
C   -1.43242737   0.72199964   2.48822527 
C   -0.87075432   1.92822107   2.91732045 
C    0.09142427   2.53255889   2.14809622 
C   -0.09459251   0.70375584   0.60553655 
C    0.51028606   1.91894424   0.96186464 
H    0.54177508   3.47297031   2.45304185 
H   -2.20786750   0.22267916   3.05874951 
H   -1.21269091   2.37997486   3.84090366 
C    0.28126102  -0.01139121  -0.57023074 
C    1.50557672   2.45728675   0.09428877 
C    1.86110489   1.80235112  -1.03505541 
C    1.27553253   0.54609124  -1.39357067 
H    1.97015414   3.40109134   0.36259075 
H    2.62045198   2.23705514  -1.68381869 
C   -0.39700925  -1.22663453  -0.84993866 
C    1.65720394  -0.15037388  -2.55288647 
C    0.03716221  -1.87937863  -2.00296537 
C    1.04767447  -1.35380174  -2.82634880 
H    2.41995489   0.27052758  -3.21527251 
H    1.36069814  -1.88597047  -3.71921990 
H   -0.80466804  -4.26839499  -0.20131105 
H   -0.42372750  -2.80275806  -2.32073774 
*
