! EnGrad PBEh-3c
%output 
xyzfile=True 
end 
%scf 
maxiter 250 
end
%output
Print[P_Hirshfeld] = 1
end
% maxcore
4000
*xyz -1 1
Pd  -1.95573361  -1.46087351   0.43136186 
Cl  -2.88296387  -3.31302355  -0.57340149 
Cl   0.06295630  -5.07586252   0.36530130 
Cl  -3.86953152  -1.25910472   1.84578034 
N   -1.06583986   0.14094100   1.35383419 
C   -1.42916943   0.71341192   2.49064846 
C   -0.86375657   1.91743700   2.91768295 
C    0.09070934   2.52629028   2.15018021 
C   -0.09233895   0.70179718   0.60758560 
C    0.51265136   1.91805631   0.96172526 
H    0.54022154   3.46899020   2.45020932 
H   -2.20565298   0.21300943   3.05315501 
H   -1.20811940   2.36825218   3.84247834 
C    0.28225935  -0.00921913  -0.57340521 
C    1.50294853   2.45735200   0.09136212 
C    1.85804291   1.80131336  -1.03601679 
C    1.27707823   0.54689905  -1.39232658 
H    1.96478917   3.40321957   0.36046137 
H    2.61103726   2.23667742  -1.68649949 
C   -0.39979149  -1.22074866  -0.85215441 
C    1.65374026  -0.15113111  -2.55013993 
C    0.03855643  -1.87997216  -2.00824349 
C    1.04726809  -1.35176484  -2.82295032 
H    2.41304345   0.27154369  -3.21168288 
H    1.35478062  -1.88353275  -3.70917814 
H   -0.81197682  -4.26621281  -0.18357889 
H   -0.42043652  -2.80990097  -2.31531607 
*
