! EnGrad PBEh-3c
%output 
xyzfile=True 
end 
%scf 
maxiter 250 
end
%output
Print[P_Hirshfeld] = 1
end
% maxcore
4000
*xyz -1 1
Pt  -0.90235529  -0.82564968   0.49610356 
Cl  -0.20646327  -0.46040967   2.71333902 
Cl  -2.67786620  -2.18833507   1.15232842 
Cl  -1.49827705  -1.13160189  -1.75188577 
C    0.95189331   1.00539883  -0.56375133 
H    1.43332765   1.77813631   0.03258462 
H    1.29824799  -0.32764185   0.29216874 
H    1.57873351   0.73386479  -1.41194289 
H    0.02275935   1.41623354  -0.95893377 
*
