! EnGrad PBEh-3c
%output 
xyzfile=True 
end 
%scf 
maxiter 250 
end
%output
Print[P_Hirshfeld] = 1
end
% maxcore
4000
*xyz -1 1
Pt  -0.88034028  -0.84081139   0.49935377 
Cl  -0.20755664  -0.44813131   2.68992899 
Cl  -2.63472372  -2.14255691   1.13868010 
Cl  -1.47451750  -1.12947586  -1.73875776 
C    1.01845956   0.89402327  -0.49827557 
H    1.43289419   1.74884318   0.05286741 
H    1.18258600  -0.19716151   0.18682963 
H    1.56289895   0.73413676  -1.40648212 
H   -0.00194407   1.38091262  -0.92377381 
*
