! EnGrad PBEh-3c
%output 
xyzfile=True 
end 
%scf 
maxiter 250 
end
%output
Print[P_Hirshfeld] = 1
end
% maxcore
4000
*xyz -1 1
Pt  -0.87723697  -0.83994057   0.49628719 
Cl  -0.20569282  -0.44385196   2.68778684 
Cl  -2.62970642  -2.13629279   1.13771136 
Cl  -1.46880020  -1.13042639  -1.73858636 
C    0.99722567   0.89312787  -0.49299813 
H    1.43433853   1.73797152   0.05801860 
H    1.16880339  -0.17597241   0.16877555 
H    1.56402925   0.73098266  -1.40959308 
H    0.01436173   1.36431105  -0.90687807 
*
