! EnGrad PBEh-3c
%output 
xyzfile=True 
end 
%scf 
maxiter 250 
end
%output
Print[P_Hirshfeld] = 1
end
% maxcore
4000
*xyz -1 1
Pt  -0.86663097  -0.84171373   0.49254290 
Cl  -0.20277845  -0.43391637   2.67890686 
Cl  -2.61193907  -2.11577403   1.13305257 
Cl  -1.45397743  -1.13160166  -1.73582630 
C    0.98978932   0.86451837  -0.47401678 
H    1.43554335   1.71369058   0.07100992 
H    1.11971243  -0.11497229   0.11761316 
H    1.55818472   0.72702914  -1.40824642 
H    0.02822590   1.33282379  -0.87415804 
*
