! EnGrad PBEh-3c
%output 
xyzfile=True 
end 
%scf 
maxiter 250 
end
%output
Print[P_Hirshfeld] = 1
end
% maxcore
4000
*xyz -1 1
Pt  -0.85953762  -0.84092821   0.48440095 
Cl  -0.19515779  -0.41668314   2.66705847 
Cl  -2.58889960  -2.08989982   1.13104387 
Cl  -1.42907418  -1.13385936  -1.73614650 
C    0.99644777   0.89310708  -0.49782397 
H    1.44091779   1.65650442   0.09892802 
H    1.04076856  -0.03921772   0.05687092 
H    1.54880240   0.71309155  -1.39300795 
H    0.03858291   1.25897555  -0.80898300 
*
