! EnGrad PBEh-3c
%output 
xyzfile=True 
end 
%scf 
maxiter 250 
end
%output
Print[P_Hirshfeld] = 1
end
% maxcore
4000
*xyz -1 1
Pt  -0.86088020  -0.83940648   0.48441797 
Cl  -0.19401426  -0.41534076   2.66674435 
Cl  -2.59092479  -2.09177228   1.13313298 
Cl  -1.42760953  -1.13417283  -1.73824425 
C    0.99756052   0.90106044  -0.50404040 
H    1.44706185   1.65931194   0.10629339 
H    1.03903197  -0.04727594   0.06249622 
H    1.55449782   0.71101738  -1.39946600 
H    0.02747861   1.25793890  -0.80859254 
*
