! EnGrad PBEh-3c
%output 
xyzfile=True 
end 
%scf 
maxiter 250 
end
%output
Print[P_Hirshfeld] = 1
end
% maxcore
4000
*xyz -1 1
C   -1.92867694   0.01763712   0.58131998 
C   -1.64496228   1.06164465   1.46741147 
C   -3.21066913  -0.03822352   0.03182023 
C   -4.20773393   0.87592384   0.33080784 
C   -3.90445485   1.94522589   1.15041149 
C   -2.65659800   1.99325601   1.73937862 
H   -2.02655740  -2.81807796  -2.14484037 
H   -3.52043129  -0.85238834  -0.60911298 
H   -2.55079432   2.70262075   2.55746535 
H   -5.20520816   0.77391157  -0.08699295 
H   -4.67623593   2.66037135   1.41284053 
C   -0.44591269   1.14217293   2.37639352 
C    0.80736641   0.30264961   2.20643377 
H   -0.78318663   0.99654106   3.41266439 
H   -0.10943287   2.18565833   2.37081822 
C    1.61393858   0.70452414   1.00481537 
H    0.53411478  -0.75338833   2.17289127 
H    1.42731441   0.38454979   3.10998738 
C    1.34681982   0.14705177  -0.25163771 
C    2.23683152   0.46736042  -1.27822372 
C    3.26750648   1.38945222  -1.12742208 
C    2.76765156   1.46871369   1.19295398 
C    3.45847724   1.98610733   0.10648884 
H    2.22339283  -0.07785489  -2.21443414 
H    3.93539279   1.62116089  -1.94934928 
H    3.08374855   1.74663148   2.19474212 
H    4.21241454   2.75212411   0.23962173 
Pd   0.03757140  -1.31872556  -0.42282213 
Br  -1.58824613  -3.62110795   0.22407230 
P    1.52140400  -2.99427390  -0.21217073 
H    1.63631338  -3.71383049   0.99363925 
C    0.08277278  -1.63110495  -3.74838358 
O    1.19731557  -1.71566245  -4.19976417 
O   -0.54524929  -2.66043602  -3.27107596 
O   -0.66445677  -0.52646912  -3.86503561 
H    2.89824837  -2.71805876  -0.31671981 
H    1.47920325  -4.09863518  -1.07427311 
H   -0.09901725   0.21294456  -4.10471016 
*
