! EnGrad PBEh-3c
%output 
xyzfile=True 
end 
%scf 
maxiter 250 
end
%output
Print[P_Hirshfeld] = 1
end
% maxcore
4000
*xyz -1 1
C   -2.06158673  -0.08496222   0.60563626 
C   -1.82448099   1.05743374   1.41351079 
C   -3.47651613  -0.49036425   0.62651939 
C   -4.53823209   0.32898312   1.12125668 
C   -4.24739520   1.57420020   1.73029342 
C   -2.88635741   1.88726045   1.91233719 
H   -1.77131137  -1.66481239  -2.26951003 
H   -3.83117365  -1.54747237   0.46452281 
H   -2.53106715   2.98078851   2.09522665 
H   -5.61772723   0.08184306   0.98435944 
H   -5.02562828   2.26866928   2.11774646 
C   -0.41055211   1.62282030   1.77558274 
C    0.72571219   0.49745055   1.93357955 
H   -0.46328430   2.19599990   2.81427760 
H   -0.16006523   2.40367642   0.90410829 
C    1.80769658   0.57546018   0.87739888 
H    0.28969096  -0.52638461   1.96966980 
H    1.19165590   0.67890524   2.90410196 
C    1.58680577  -0.03385924  -0.35659323 
C    2.59789970   0.16528857  -1.34822661 
C    3.64823161   1.08266592  -1.12928256 
C    2.87050861   1.46193872   1.10476265 
C    3.79548430   1.72824957   0.10453907 
H    2.59990770  -0.39199034  -2.29865864 
H    4.38316114   1.28385110  -1.91054628 
H    3.00587297   1.84758663   2.11912916 
H    4.55511957   2.49289200   0.25795723 
Pd  -0.31358367  -1.20955078  -0.31301105 
Br  -1.70538741  -3.45779403  -1.13659138 
P    1.44059978  -2.94570534  -0.06504739 
H    1.00435884  -3.53879286   1.18200149 
C    0.13380509  -1.46340177  -3.77699883 
O    1.23251735  -1.86288981  -4.04855012 
O   -0.86395086  -2.05424294  -3.08626022 
O   -0.19698215  -0.19816569  -4.17523413 
H    2.85453923  -2.80534675   0.31225380 
H    1.61696746  -4.15524920  -0.81693988 
H    0.57906377   0.21147418  -4.61906208 
*
