! EnGrad PBEh-3c
%output 
xyzfile=True 
end 
%scf 
maxiter 250 
end
%output
Print[P_Hirshfeld] = 1
end
% maxcore
4000
*xyz -1 1
C   -2.15572053  -0.09340363   0.73170453 
C   -1.84137936   1.13480636   1.37744920 
C   -3.49930803  -0.52051574   0.75344634 
C   -4.52609133   0.30992716   1.22892183 
C   -4.20837318   1.55035814   1.75790057 
C   -2.88481394   1.94469031   1.79207107 
H   -1.51125496  -1.72339754  -2.42434459 
H   -3.80212154  -1.51179279   0.44186578 
H   -2.60724540   2.86041095   2.16419707 
H   -5.57253968  -0.01277739   1.12101524 
H   -5.01288981   2.19289791   2.12048817 
C   -0.41815477   1.65623818   1.66650701 
C    0.68532265   0.57506146   1.91392451 
H   -0.45760134   2.21569922   2.57210959 
H   -0.12795754   2.30752366   0.93459369 
C    1.75075575   0.63549161   0.86541253 
H    0.26500731  -0.43581977   1.95667969 
H    1.16675243   0.70062189   2.89444934 
C    1.57565562  -0.04056723  -0.34402656 
C    2.59299979   0.13494372  -1.32655408 
C    3.66163475   1.02709119  -1.11584638 
C    2.89086891   1.41001018   1.10172901 
C    3.78156389   1.71746713   0.08020812 
H    2.60847762  -0.39314894  -2.27776274 
H    4.40258213   1.23024539  -1.89601820 
H    2.99747207   1.86925675   2.07593772 
H    4.59599011   2.42692638   0.26011146 
Pd  -0.22049372  -1.31299202  -0.35612781 
Br  -1.79957912  -3.41929312  -1.04148180 
P    1.43000055  -2.95125709  -0.02283657 
H    0.98140694  -3.51907946   1.14819018 
C    0.15297840  -1.33078244  -3.74356651 
O    1.10608594  -1.92521831  -3.99062949 
O   -0.84419966  -1.84890122  -3.13426439 
O   -0.16085468  -0.12769197  -4.23985301 
H    2.77054378  -2.79601086   0.35528511 
H    1.60301074  -4.12060865  -0.76660322 
H    0.62058316   0.18064334  -4.65374492 
*
