! EnGrad PBEh-3c
%output 
xyzfile=True 
end 
%scf 
maxiter 250 
end
%output
Print[P_Hirshfeld] = 1
end
% maxcore
4000
*xyz -1 1
C   -2.07355318  -0.12286684   0.70846284 
C   -1.82619693   1.07651972   1.36088238 
C   -3.45013872  -0.46072814   0.69048030 
C   -4.48086852   0.35834495   1.13960704 
C   -4.18481592   1.59678215   1.67002831 
C   -2.85137801   1.94129133   1.78882958 
H   -1.48952673  -1.86036448  -2.34257138 
H   -3.75028652  -1.41052053   0.27032863 
H   -2.60797466   2.87841162   2.30934852 
H   -5.50918537   0.06592454   1.03649335 
H   -4.95444894   2.26005543   2.02512482 
C   -0.44134356   1.52023873   1.71906970 
C    0.69017872   0.52782270   1.94457984 
H   -0.52291301   2.12459672   2.63325508 
H   -0.08141754   2.28597552   0.99653174 
C    1.72680797   0.63037486   0.87657167 
H    0.27356319  -0.46042502   1.97568924 
H    1.15930764   0.69184905   2.91393718 
C    1.52428864  -0.02798402  -0.33876740 
C    2.53431629   0.16573032  -1.30653352 
C    3.58903033   1.06955888  -1.11496969 
C    2.83736166   1.44063185   1.09756561 
C    3.74659256   1.71445783   0.09357296 
H    2.53744504  -0.36066655  -2.25095852 
H    4.32261535   1.24946605  -1.89689342 
H    2.98997524   1.87579201   2.07877961 
H    4.54800756   2.42313614   0.25836982 
Pd  -0.10102037  -1.34077475  -0.36765049 
Br  -1.81075635  -3.39074835  -0.77114253 
P    1.40918183  -2.93658654  -0.06388724 
H    1.04436873  -3.56266593   1.15735121 
C    0.12424971  -1.35520322  -3.76625722 
O    1.19908779  -1.86465821  -4.04080479 
O   -0.85394240  -1.98468213  -3.13897304 
O   -0.20927257  -0.10872080  -4.20788132 
H    2.76500459  -2.75516615   0.29758925 
H    1.57750025  -4.11879625  -0.79406129 
H    0.58925578   0.22201106  -4.65209415 
*
