! EnGrad PBEh-3c
%output 
xyzfile=True 
end 
%scf 
maxiter 250 
end
%output
Print[P_Hirshfeld] = 1
end
% maxcore
4000
*xyz -1 1
C   -1.88472299  -0.01857428   0.50485774 
C   -1.78443077   0.98724507   1.50560389 
C   -3.34902602  -0.22021381   0.30118634 
C   -4.35031943   0.70476665   0.61200241 
C   -4.06001047   1.78495318   1.41819817 
C   -2.76568405   1.94966840   1.81756387 
H   -2.00839412  -2.28951328  -2.15078587 
H   -3.64709272  -1.14196464  -0.14634375 
H   -2.54354537   2.85220252   2.35919246 
H   -5.37760348   0.52485265   0.33277371 
H   -4.80319115   2.50301967   1.70612482 
C   -0.41556184   1.33798792   2.14658969 
C    0.76258406   0.36196501   2.08927528 
H   -0.65567413   1.45738347   3.13745240 
H   -0.15676349   2.27968906   1.78604608 
C    1.72647767   0.59664016   0.96958974 
H    0.44684042  -0.66218107   2.07667349 
H    1.32623880   0.50476012   3.01591622 
C    1.47912629   0.10112955  -0.32305812 
C    2.41212983   0.33881135  -1.33060874 
C    3.40425819   1.30223640  -1.12634871 
C    2.76963284   1.50685358   1.15631714 
C    3.63462520   1.85238196   0.11313550 
H    2.38417889  -0.20764381  -2.23891224 
H    4.11585363   1.48988428  -1.93130588 
H    3.05743483   1.77327619   2.16632185 
H    4.33848830   2.66562466   0.24524410 
Pd  -0.16872080  -1.24060520  -0.35573389 
Br  -1.59593281  -3.60033445  -0.33431632 
P    1.53435616  -2.99353590  -0.16582795 
H    1.37357095  -3.64819000   1.09272450 
C    0.09484337  -1.64261892  -3.81416989 
O    1.31364880  -1.73100722  -4.15853176 
O   -0.70264661  -2.46132295  -3.15495941 
O   -0.49408666  -0.37309942  -3.97575657 
H    2.87036909  -2.75973278  -0.06324234 
H    1.53798612  -4.12305393  -0.96298642 
H    0.18308884   0.23843442  -4.32736981 
*
