! EnGrad PBEh-3c
%output 
xyzfile=True 
end 
%scf 
maxiter 250 
end
%output
Print[P_Hirshfeld] = 1
end
% maxcore
4000
*xyz -1 1
C   -1.91300371  -0.03148195   0.50528818 
C   -1.80964187   0.97155185   1.49128264 
C   -3.38540944  -0.29656645   0.42339066 
C   -4.41494117   0.59560808   0.76592573 
C   -4.13472870   1.71662044   1.53143820 
C   -2.82193458   1.90787531   1.84796532 
H   -1.98147455  -2.05036280  -2.16372324 
H   -3.71624162  -1.29170939   0.06409133 
H   -2.53402645   2.93125249   2.27646831 
H   -5.46580265   0.39501025   0.53882010 
H   -4.87214167   2.42843414   1.84746569 
C   -0.41873346   1.39273142   2.00514797 
C    0.75155332   0.40211400   2.03857212 
H   -0.60029790   1.68939490   3.05514769 
H   -0.15891733   2.36390492   1.48967358 
C    1.77241796   0.56798223   0.93613015 
H    0.39749840  -0.62411370   2.03547615 
H    1.27951287   0.56166084   2.97324287 
C    1.52312841   0.06310133  -0.33953052 
C    2.48907661   0.28722254  -1.33874182 
C    3.48370375   1.24498674  -1.13704077 
C    2.78665398   1.50867895   1.14013137 
C    3.70195086   1.79921803   0.11912824 
H    2.46002135  -0.27499967  -2.26325382 
H    4.20212871   1.42462167  -1.92081429 
H    3.04370101   1.79103534   2.15343983 
H    4.40452782   2.61909374   0.24827499 
Pd  -0.23983627  -1.21115176  -0.33181560 
Br  -1.61069334  -3.57649191  -0.60533897 
P    1.50710906  -2.98055122  -0.13774628 
H    1.24875865  -3.61602141   1.13574000 
C    0.13057696  -1.61168527  -3.83672682 
O    1.30743310  -1.75475768  -4.12312079 
O   -0.76923036  -2.35464976  -3.11363537 
O   -0.40125518  -0.31629770  -4.03384308 
H    2.87449292  -2.77615321   0.05947157 
H    1.56652306  -4.13873721  -0.91551174 
H    0.32036076   0.24359807  -4.43141281 
*
