! EnGrad PBEh-3c
%output 
xyzfile=True 
end 
%scf 
maxiter 250 
end
%output
Print[P_Hirshfeld] = 1
end
% maxcore
4000
*xyz -1 1
C   -1.90196590  -0.01269439   0.52468051 
C   -1.75593985   1.00188556   1.49220500 
C   -3.32427111  -0.19434829   0.26134237 
C   -4.33056573   0.72228025   0.57826999 
C   -4.03915845   1.80822690   1.37761932 
C   -2.75068835   1.95310826   1.80755982 
H   -2.00642403  -2.36517783  -2.15271997 
H   -3.63131937  -1.10394693  -0.21130702 
H   -2.54343839   2.83176582   2.38737182 
H   -5.35493281   0.55618111   0.27688479 
H   -4.78780587   2.52470626   1.66630365 
C   -0.42297104   1.30576200   2.17254190 
C    0.77097769   0.35588297   2.10575804 
H   -0.67391948   1.39770018   3.18528985 
H   -0.14659219   2.27256574   1.86179729 
C    1.70872830   0.61682060   0.97143080 
H    0.45719056  -0.67557330   2.09101487 
H    1.34053714   0.48828898   3.02958751 
C    1.45680676   0.10393688  -0.30942398 
C    2.38623910   0.35803569  -1.32032178 
C    3.38865025   1.31068017  -1.12787978 
C    2.77359392   1.49782966   1.16104686 
C    3.60639591   1.87306310   0.11254187 
H    2.36196006  -0.19074863  -2.23784116 
H    4.09148090   1.50726924  -1.93372392 
H    3.06075864   1.77084192   2.17045649 
H    4.32261312   2.67617942   0.24457552 
Pd  -0.13408559  -1.25341788  -0.36736172 
Br  -1.59759329  -3.59990798  -0.25848976 
P    1.52544340  -2.99110590  -0.17060869 
H    1.40968607  -3.65684990   1.07784772 
C    0.09341367  -1.63324310  -3.79990148 
O    1.28892548  -1.73308773  -4.16287461 
O   -0.67825475  -2.48493149  -3.17478460 
O   -0.51363389  -0.39694006  -3.96235572 
H    2.87773142  -2.75329635  -0.09738897 
H    1.53001401  -4.12049576  -0.97941917 
H    0.14421648   0.23268941  -4.29603390 
*
