! EnGrad PBEh-3c
%output 
xyzfile=True 
end 
%scf 
maxiter 250 
end
%output
Print[P_Hirshfeld] = 1
end
% maxcore
4000
*xyz -1 1
C   -1.98806815  -0.04987651   0.56084386 
C   -1.79195642   1.00510517   1.43564726 
C   -3.40795117  -0.37982368   0.46967868 
C   -4.46652545   0.48546219   0.90276433 
C   -4.18442470   1.66340329   1.58713081 
C   -2.83041130   1.91842513   1.90386652 
H   -1.89398902  -1.91559198  -2.20757598 
H   -3.75830042  -1.37904112   0.21307235 
H   -2.53014604   2.93562273   2.19558325 
H   -5.52029340   0.27773527   0.70017415 
H   -4.93477563   2.37671703   1.94729621 
C   -0.41927303   1.50905988   1.93877822 
C    0.74971878   0.42584493   1.99087227 
H   -0.54635038   1.88264880   2.98092770 
H   -0.16214440   2.36112215   1.27057532 
C    1.77773238   0.58093881   0.91684808 
H    0.35722252  -0.59182463   2.01561847 
H    1.25073494   0.60584401   2.95444126 
C    1.53681603   0.01902139  -0.33812988 
C    2.52089128   0.24016498  -1.34663934 
C    3.54902977   1.18324023  -1.12353861 
C    2.83161605   1.48638533   1.11975849 
C    3.72420825   1.77785418   0.11181042 
H    2.50923122  -0.31546725  -2.27613566 
H    4.27096265   1.37512380  -1.92261247 
H    3.02837891   1.81501758   2.14529804 
H    4.46139408   2.57141953   0.25250575 
Pd  -0.26027912  -1.21234238  -0.32658175 
Br  -1.65030544  -3.52446732  -0.80727958 
P    1.47001765  -2.96153734  -0.10926226 
H    1.16090616  -3.58676440   1.14882779 
C    0.05665449  -1.55484377  -3.76735923 
O    1.31115398  -1.80763264  -4.11186339 
O   -0.78344512  -2.23268637  -3.12057166 
O   -0.30611614  -0.27594975  -4.09368288 
H    2.87721223  -2.78605860   0.15152879 
H    1.58566867  -4.14845426  -0.88484563 
H    0.40341734   0.22374853  -4.49286085 
*
