! EnGrad PBEh-3c
%output 
xyzfile=True 
end 
%scf 
maxiter 250 
end
%output
Print[P_Hirshfeld] = 1
end
% maxcore
4000
*xyz -1 1
C   -1.92766958  -0.02379418   0.53547618 
C   -1.76669169   1.00284669   1.47532110 
C   -3.34925170  -0.24971734   0.32353598 
C   -4.37115310   0.65158413   0.67513967 
C   -4.08252406   1.76499343   1.44016375 
C   -2.77448765   1.94275448   1.83630978 
H   -1.97285936  -2.23096520  -2.16909586 
H   -3.66922639  -1.18606943  -0.08461916 
H   -2.53947029   2.86276970   2.33011813 
H   -5.40429708   0.47305806   0.40324725 
H   -4.83168002   2.48052777   1.75018696 
C   -0.42186709   1.36645151   2.10275759 
C    0.76463138   0.37676836   2.07146176 
H   -0.63583691   1.54246948   3.12428264 
H   -0.15123492   2.29900204   1.68530274 
C    1.72932775   0.60610899   0.95513649 
H    0.42734760  -0.65057223   2.06850716 
H    1.31372893   0.52338210   3.00715447 
C    1.48069153   0.07858748  -0.31799341 
C    2.42643614   0.32284834  -1.32817823 
C    3.43652755   1.27263616  -1.12658383 
C    2.79091498   1.49441324   1.14872124 
C    3.64156584   1.84464085   0.11232352 
H    2.40592419  -0.22798026  -2.24927302 
H    4.14506069   1.46782052  -1.93040687 
H    3.05109248   1.78402946   2.16294606 
H    4.36404271   2.64490597   0.24694289 
Pd  -0.17175752  -1.24115581  -0.35518788 
Br  -1.61332918  -3.57738705  -0.42231725 
P    1.50889742  -2.98227894  -0.15229524 
H    1.33541904  -3.63592762   1.09903705 
C    0.08244013  -1.60983894  -3.79018680 
O    1.29556124  -1.75534125  -4.14764649 
O   -0.70965671  -2.40963001  -3.15860068 
O   -0.45168465  -0.36082143  -4.00156016 
H    2.87757643  -2.76307670  -0.02308079 
H    1.54662832  -4.12884207  -0.95118660 
H    0.22159442   0.23002033  -4.35479167 
*
