! EnGrad PBEh-3c
%output 
xyzfile=True 
end 
%scf 
maxiter 250 
end
%output
Print[P_Hirshfeld] = 1
end
% maxcore
4000
*xyz -1 1
C   -2.03759436  -0.07748929   0.58862732 
C   -1.81558037   1.03849043   1.41639348 
C   -3.45686047  -0.46006714   0.58075812 
C   -4.52585082   0.36201289   1.06487501 
C   -4.23563778   1.59812568   1.69497248 
C   -2.87686847   1.88396585   1.92029235 
H   -1.81728851  -1.71797006  -2.24279178 
H   -3.81803012  -1.51425528   0.40816946 
H   -2.52301417   2.98574601   2.11463517 
H   -5.59783466   0.13311322   0.91152780 
H   -5.00629203   2.29945739   2.07884384 
C   -0.41248590   1.59133011   1.82707647 
C    0.73282824   0.47376795   1.94508258 
H   -0.48236404   2.12696297   2.87080861 
H   -0.16099164   2.40274057   0.97796160 
C    1.80615652   0.57223599   0.88694179 
H    0.30623991  -0.54722233   1.98108942 
H    1.20698510   0.66213579   2.91768884 
C    1.57440116  -0.02240607  -0.35184188 
C    2.58074742   0.18298254  -1.35150251 
C    3.62455514   1.11051829  -1.12667413 
C    2.85889425   1.47165940   1.10683076 
C    3.78122805   1.74021012   0.10707456 
H    2.57812846  -0.37427925  -2.29405512 
H    4.35658374   1.30803260  -1.91502243 
H    3.01167400   1.83931386   2.12925075 
H    4.53062968   2.51415742   0.25664252 
Pd  -0.30592606  -1.20320394  -0.31391860 
Br  -1.68702157  -3.47333474  -1.06960778 
P    1.44658478  -2.94680686  -0.07982352 
H    1.04099669  -3.55211985   1.17827716 
C    0.10515060  -1.49662698  -3.77207136 
O    1.27092008  -1.84729347  -4.07128262 
O   -0.84848640  -2.11182545  -3.08796760 
O   -0.22666107  -0.21680428  -4.15266761 
H    2.86675741  -2.80119669   0.27380144 
H    1.61074641  -4.15683393  -0.83637590 
H    0.54012587   0.21928921  -4.59052449 
*
