! EnGrad PBEh-3c
%output 
xyzfile=True 
end 
%scf 
maxiter 250 
end
%output
Print[P_Hirshfeld] = 1
end
% maxcore
4000
*xyz 0 1
Pd   0.41233277   0.18722285  -0.26856102 
O    1.98692374   1.39570852   0.65779375 
C    1.77580385   2.56562080   0.32659423 
O    0.66182426   2.86187509  -0.24793635 
C    2.75527208   3.66016605   0.61501315 
H    2.29561702   4.55520525   1.03171617 
H    3.21998684   3.96289977  -0.32581956 
H    3.53900823   3.31954821   1.28664914 
N   -1.36992350  -0.76375116  -0.95483041 
C   -1.23065254  -1.92141884  -1.86335621 
H   -0.71641247  -1.70262081  -2.79150837 
H   -2.18184355  -2.30355901  -2.26717564 
H   -0.64633999  -2.68914593  -1.36136179 
C   -2.04864994   0.24754515  -1.78159459 
H   -2.16694492   1.17482020  -1.23267679 
H   -3.04649992  -0.07180900  -2.11063989 
H   -1.49573401   0.49497374  -2.68298058 
C   -1.56549942  -1.09636497   1.45021932 
C   -1.39988696  -2.17876850   2.31569869 
C   -1.23094174  -2.01567845   3.68467004 
C   -0.99872321  -0.75183202   4.18593235 
C   -1.30162491   0.33999610   3.38568575 
C   -1.57571474   0.17291760   2.03598628 
H   -0.81292632  -0.61589467   5.24364756 
H   -1.25504583   1.30633846   3.87124860 
H   -1.80672348  -3.15010242   2.05378155 
H   -1.31700887  -2.85572950   4.36211141 
H   -1.94762453   3.50678679   1.27617443 
C   -2.28577989  -1.20217927   0.13449429 
H   -3.22191600  -0.62443682   0.19389177 
H   -2.69995605  -2.21668834   0.05047724 
O    1.86996117  -0.24701996  -1.45331000 
C    2.27768994  -0.51511413  -2.62362759 
O    1.49667236  -0.89900968  -3.47208784 
C    3.71745273  -0.48305410  -3.09214653 
H    4.04575853  -1.48089909  -3.38780328 
H    4.43637446  -0.18789543  -2.32693512 
H    3.83168934   0.22134751  -3.91741962 
*
