! EnGrad PBEh-3c
%output 
xyzfile=True 
end 
%scf 
maxiter 250 
end
%output
Print[P_Hirshfeld] = 1
end
% maxcore
4000
*xyz 0 1
Pd   0.51064936   0.29359337  -0.21862933 
O    1.83950024   1.33052834   0.58556989 
C    1.72180870   2.55376846   0.31126900 
O    0.60313471   2.90734009  -0.27498351 
C    2.71107632   3.58350390   0.60706977 
H    2.25698257   4.50064525   1.02002579 
H    3.19942303   3.93762299  -0.31905757 
H    3.52930227   3.30624672   1.28056239 
N   -1.35816842  -0.73777545  -0.97341853 
C   -1.19665466  -1.88853244  -1.93010583 
H   -0.61567585  -1.57276888  -2.81991576 
H   -2.19543048  -2.30764938  -2.22361867 
H   -0.65421899  -2.70683020  -1.44003115 
C   -2.08156061   0.30078865  -1.76032190 
H   -2.20142026   1.20043268  -1.15155485 
H   -3.09570434  -0.03593037  -2.09165419 
H   -1.49206784   0.55099858  -2.65468293 
C   -1.69565622  -1.03697338   1.48519506 
C   -1.50046491  -2.15266546   2.32678706 
C   -1.18706147  -1.98478235   3.66683055 
C   -1.07757128  -0.73070815   4.22099513 
C   -1.26749117   0.42232639   3.42534698 
C   -1.47892162   0.22181563   2.08010205 
H   -0.85303968  -0.58372598   5.25371955 
H   -1.31185246   1.41997141   3.86524951 
H   -1.60365121  -3.16028539   1.90569361 
H   -1.11562879  -2.86528803   4.30677659 
H   -1.98706533   3.16733653   1.33563161 
C   -2.24758817  -1.20101883   0.09636106 
H   -3.17161121  -0.61798037   0.11966194 
H   -2.52205659  -2.25922881  -0.02905791 
O    2.02185933  -0.37698435  -1.40174305 
C    2.25188182  -0.54258252  -2.64488746 
O    1.36591998  -0.68956036  -3.48440910 
C    3.69129641  -0.55048071  -3.01541930 
H    3.95948753  -1.54220661  -3.35353695 
H    4.39235294  -0.24104097  -2.23153887 
H    3.85671439   0.08328199  -3.87956975 
*
