! EnGrad PBEh-3c
%output 
xyzfile=True 
end 
%scf 
maxiter 250 
end
%output
Print[P_Hirshfeld] = 1
end
% maxcore
4000
*xyz 0 1
Pd   0.48285768   0.28020909  -0.21333139 
O    1.87947528   1.34481668   0.60238953 
C    1.70515994   2.55047394   0.30707581 
O    0.64092143   2.88774428  -0.25991926 
C    2.72497357   3.60779816   0.60952759 
H    2.26639914   4.51879535   1.02331490 
H    3.20839700   3.94914943  -0.32438050 
H    3.53552583   3.31237113   1.28378267 
N   -1.37521080  -0.75118288  -0.97989194 
C   -1.20630713  -1.90373484  -1.92142158 
H   -0.63921636  -1.60127686  -2.81607607 
H   -2.19398294  -2.30407906  -2.23011521 
H   -0.65117947  -2.70457242  -1.41850881 
C   -2.07781485   0.29113954  -1.77005529 
H   -2.19320538   1.19891252  -1.16760606 
H   -3.08250648  -0.04772393  -2.09347050 
H   -1.49148120   0.53597430  -2.66230069 
C   -1.66809683  -1.05485393   1.48423354 
C   -1.47729546  -2.15745990   2.32484602 
C   -1.18420750  -1.99381057   3.66974722 
C   -1.06779274  -0.73517921   4.21193622 
C   -1.27255102   0.40069740   3.41794379 
C   -1.50154139   0.20785865   2.07395529 
H   -0.84027465  -0.59115826   5.24635974 
H   -1.30309828   1.38958805   3.86554508 
H   -1.65444356  -3.16198531   1.94354028 
H   -1.17220200  -2.86329485   4.32163887 
H   -1.98228526   3.26782378   1.31982140 
C   -2.25718006  -1.20370520   0.10597140 
H   -3.17976515  -0.62148145   0.14309417 
H   -2.56656268  -2.25156782  -0.00907392 
O    2.00560925  -0.34643151  -1.40985695 
C    2.24400426  -0.54150951  -2.64756362 
O    1.39669977  -0.74208048  -3.50014493 
C    3.69759275  -0.53324551  -3.03280155 
H    3.97735016  -1.52626588  -3.36168323 
H    4.41806282  -0.22585877  -2.25064691 
H    3.85509040   0.11572731  -3.88920911 
*
