! EnGrad PBEh-3c
%output 
xyzfile=True 
end 
%scf 
maxiter 250 
end
%output
Print[P_Hirshfeld] = 1
end
% maxcore
4000
*xyz 0 1
Pd   0.48630604   0.28355978  -0.21992868 
O    1.87314552   1.32295759   0.60195050 
C    1.69746546   2.56834752   0.30204790 
O    0.62420856   2.89828394  -0.26729842 
C    2.72688741   3.60155999   0.60940916 
H    2.26129662   4.50595013   1.02108003 
H    3.20198813   3.94032318  -0.31952245 
H    3.53063180   3.30730795   1.28152251 
N   -1.36734837  -0.74759647  -0.98978962 
C   -1.19744354  -1.89884811  -1.92454874 
H   -0.62956001  -1.59009783  -2.81176146 
H   -2.19078847  -2.30363459  -2.22481399 
H   -0.65372061  -2.70419927  -1.42821178 
C   -2.07902476   0.29901640  -1.76568945 
H   -2.19685310   1.19794645  -1.16265058 
H   -3.08384683  -0.04253865  -2.09174725 
H   -1.49174888   0.54135137  -2.65689978 
C   -1.68126127  -1.03683748   1.48534305 
C   -1.49083472  -2.15593733   2.32618582 
C   -1.18855588  -1.99317689   3.66847829 
C   -1.07322819  -0.72900167   4.21254864 
C   -1.26876121   0.41443405   3.41668225 
C   -1.48993367   0.21063301   2.07912171 
H   -0.84601490  -0.58817360   5.25437463 
H   -1.30228328   1.40140348   3.86389497 
H   -1.63280651  -3.15889117   1.92593745 
H   -1.14523713  -2.86350183   4.31387004 
H   -1.98018543   3.20975265   1.32732246 
C   -2.25336007  -1.20277760   0.11254854 
H   -3.17596479  -0.61818100   0.12900397 
H   -2.54567903  -2.25197826  -0.02036256 
O    2.01603722  -0.35644235  -1.39490442 
C    2.23679144  -0.54149613  -2.64872899 
O    1.38179670  -0.72280297  -3.49655218 
C    3.70416603  -0.53778372  -3.02184192 
H    3.97080190  -1.53461752  -3.35975666 
H    4.39977794  -0.23261160  -2.24479805 
H    3.85336891   0.10406705  -3.88632112 
*
