! EnGrad PBEh-3c
%output 
xyzfile=True 
end 
%scf 
maxiter 250 
end
%output
Print[P_Hirshfeld] = 1
end
% maxcore
4000
*xyz 0 1
Pd   0.48474676   0.28464386  -0.22893753 
O    1.87110889   1.30707319   0.60241621 
C    1.68062442   2.58162528   0.29465981 
O    0.61225550   2.90869259  -0.27258465 
C    2.73019998   3.59774139   0.60971704 
H    2.25596755   4.49186053   1.01886264 
H    3.19544232   3.93041311  -0.31493823 
H    3.52559192   3.30030682   1.27974981 
N   -1.36080129  -0.74518645  -1.00235779 
C   -1.18860932  -1.89469164  -1.92742587 
H   -0.62033549  -1.58010631  -2.80529474 
H   -2.18487565  -2.30168486  -2.21879826 
H   -0.65579128  -2.70361126  -1.43704350 
C   -2.07970123   0.30650328  -1.76269087 
H   -2.20041334   1.19726345  -1.15806125 
H   -3.08254240  -0.03736858  -2.08948070 
H   -1.49212778   0.54650095  -2.65087766 
C   -1.69311639  -1.01842226   1.48888992 
C   -1.50512494  -2.15214666   2.32668494 
C   -1.19426950  -1.99221799   3.66694982 
C   -1.07892053  -0.72083438   4.21214685 
C   -1.26384050   0.42774934   3.41550242 
C   -1.47919490   0.21401974   2.08382075 
H   -0.85206631  -0.58553393   5.26297414 
H   -1.29877716   1.41252758   3.86154053 
H   -1.61251929  -3.15443687   1.90844418 
H   -1.11806567  -2.86369809   4.30607782 
H   -1.97578962   3.14443695   1.33507261 
C   -2.24908731  -1.20022986   0.12010035 
H   -3.17227354  -0.61458679   0.11330072 
H   -2.52487221  -2.25083144  -0.03180330 
O    2.02748723  -0.36532595  -1.37829806 
C    2.22683790  -0.54045520  -2.64705663 
O    1.36653192  -0.70562529  -3.49468378 
C    3.70953416  -0.54255329  -3.01340313 
H    3.96535933  -1.54300108  -3.35814407 
H    4.38103150  -0.23832763  -2.23766213 
H    3.85092736   0.09423683  -3.88392848 
*
