! EnGrad PBEh-3c
%output 
xyzfile=True 
end 
%scf 
maxiter 250 
end
%output
Print[P_Hirshfeld] = 1
end
% maxcore
4000
*xyz 0 1
Pd   0.48021083   0.28626924  -0.25816125 
O    1.85697513   1.29120146   0.59562582 
C    1.61730636   2.59507291   0.26940120 
O    0.59508946   2.93595112  -0.27766591 
C    2.73000805   3.58334388   0.61070389 
H    2.23905908   4.45085254   1.01328038 
H    3.17798565   3.90138694  -0.30606062 
H    3.51206379   3.27544821   1.27679379 
N   -1.34282375  -0.73519983  -1.02844677 
C   -1.16846901  -1.87979727  -1.93768191 
H   -0.58981996  -1.54762140  -2.78947149 
H   -2.16423658  -2.29379363  -2.20203769 
H   -0.65848124  -2.70332550  -1.46333000 
C   -2.08092284   0.32348311  -1.75688402 
H   -2.21184080   1.19905235  -1.13960131 
H   -3.07864981  -0.02028339  -2.08188996 
H   -1.49382250   0.56585085  -2.63304652 
C   -1.72582326  -0.97629400   1.50588321 
C   -1.54724056  -2.13179409   2.32325878 
C   -1.21068374  -1.98322086   3.66283187 
C   -1.09673695  -0.69428707   4.21285974 
C   -1.24737080   0.46109305   3.42128889 
C   -1.45054242   0.23498120   2.09296258 
H   -0.87295179  -0.57729297   5.28450836 
H   -1.28821427   1.45009419   3.85471572 
H   -1.54733774  -3.13846996   1.85314863 
H   -1.03074366  -2.86408938   4.28131283 
H   -1.96210937   2.93010534   1.36087313 
C   -2.23407017  -1.18724960   0.12810411 
H   -3.16047948  -0.60602448   0.06334132 
H   -2.45813457  -2.24728200  -0.06509737 
O    2.06149649  -0.39810948  -1.33877997 
C    2.19853144  -0.53649508  -2.63479439 
O    1.32383226  -0.64552536  -3.48032826 
C    3.70677003  -0.56521849  -3.00057067 
H    3.94778194  -1.56900305  -3.34991456 
H    4.33101656  -0.25434552  -2.20458112 
H    3.84515018   0.06161334  -3.87462718 
*
