! EnGrad PBEh-3c
%output 
xyzfile=True 
end 
%scf 
maxiter 250 
end
%output
Print[P_Hirshfeld] = 1
end
% maxcore
4000
*xyz 0 1
Pd   0.48311307   0.28522927  -0.23946295 
O    1.86601838   1.30135671   0.59997053 
C    1.65781934   2.58646867   0.28556249 
O    0.60607286   2.91851022  -0.27441475 
C    2.73013085   3.59255588   0.61007247 
H    2.24987767   4.47709080   1.01685209 
H    3.18915500   3.91995884  -0.31174081 
H    3.52071953   3.29135357   1.27868515 
N   -1.35432637  -0.74158960  -1.01175418 
C   -1.18135544  -1.88932718  -1.93111976 
H   -0.60934480  -1.56840632  -2.79959573 
H   -2.17744214  -2.29884270  -2.21276165 
H   -0.65676012  -2.70350834  -1.44651103 
C   -2.08014121   0.31261886  -1.76059944 
H   -2.20452914   1.19790776  -1.15141259 
H   -3.08114042  -0.03121505  -2.08674676 
H   -1.49273816   0.55347014  -2.64445547 
C   -1.70489632  -1.00324905   1.49501035 
C   -1.52029360  -2.14481634   2.32545095 
C   -1.20018137  -1.98897752   3.66546667 
C   -1.08533742  -0.71127292   4.21240361 
C   -1.25790866   0.43975865   3.41758652 
C   -1.46887522   0.22156937   2.08711334 
H   -0.85958857  -0.58256581   5.27073006 
H   -1.29497275   1.42605784   3.85908246 
H   -1.58904304  -3.14868611   1.88852854 
H   -1.08661516  -2.86383902   4.29715828 
H   -1.97086244   3.06724177   1.34436511 
C   -2.24367863  -1.19555480   0.12298304 
H   -3.16802571  -0.61150293   0.09530699 
H   -2.50083551  -2.24955304  -0.04379473 
O    2.03973624  -0.37713350  -1.36406494 
C    2.21664285  -0.53902889  -2.64264018 
O    1.35115291  -0.68397928  -3.48951340 
C    3.70853861  -0.55071655  -3.00878130 
H    3.95902854  -1.55236613  -3.35518007 
H    4.36301777  -0.24409675  -2.22574744 
H    3.84884661   0.08248692  -3.88057846 
*
