! EnGrad PBEh-3c
%output 
xyzfile=True 
end 
%scf 
maxiter 250 
end
%output
Print[P_Hirshfeld] = 1
end
% maxcore
4000
*xyz 0 1
Pd   0.45935537   0.27484625  -0.28118164 
O    1.86054708   1.28424868   0.59625160 
C    1.58838713   2.61297893   0.26001720 
O    0.58220509   2.95145627  -0.28245424 
C    2.72117974   3.57218334   0.60988845 
H    2.22809119   4.43222108   1.01413284 
H    3.17139849   3.88409134  -0.30829132 
H    3.50433864   3.25220856   1.27864753 
N   -1.33891823  -0.73121530  -1.04478128 
C   -1.15872254  -1.87560867  -1.93943418 
H   -0.57609378  -1.53674738  -2.77696640 
H   -2.14463936  -2.28247090  -2.19512517 
H   -0.65486557  -2.70173415  -1.47088562 
C   -2.07742804   0.33077590  -1.75685302 
H   -2.21633039   1.20057647  -1.13183920 
H   -3.06702412  -0.01300625  -2.07667644 
H   -1.49385085   0.57763454  -2.62568735 
C   -1.73535178  -0.95356910   1.51421761 
C   -1.56412480  -2.12028558   2.32084589 
C   -1.22241606  -1.97494652   3.66169931 
C   -1.10516014  -0.67926318   4.21389541 
C   -1.23636499   0.47549803   3.42357696 
C   -1.44532631   0.25661925   2.09497240 
H   -0.88615643  -0.57454346   5.29277877 
H   -1.27001823   1.46487133   3.84903679 
H   -1.52178396  -3.11495820   1.82997616 
H   -0.98715257  -2.85867515   4.26530529 
H   -1.94308068   2.77894837   1.37631318 
C   -2.22494600  -1.17518551   0.13067134 
H   -3.15503075  -0.60310543   0.03167618 
H   -2.42539408  -2.23528601  -0.07870370 
O    2.07330695  -0.40907900  -1.31404467 
C    2.17460433  -0.53422509  -2.62605645 
O    1.30799354  -0.62076526  -3.46628998 
C    3.69552459  -0.57665757  -3.00156994 
H    3.94352459  -1.58427052  -3.34556026 
H    4.30336033  -0.25953577  -2.18410976 
H    3.83912122   0.05433858  -3.87329766 
*
