! EnGrad PBEh-3c
%output 
xyzfile=True 
end 
%scf 
maxiter 250 
end
%output
Print[P_Hirshfeld] = 1
end
% maxcore
4000
*xyz 0 1
Pd   0.47328196   0.28093270  -0.25672644 
O    1.86375431   1.29427729   0.59843161 
C    1.62908779   2.59743881   0.27499167 
O    0.59619620   2.93214353  -0.27774155 
C    2.72642682   3.58412558   0.60999632 
H    2.24086227   4.45852339   1.01572685 
H    3.18180723   3.90511661  -0.31031338 
H    3.51394100   3.27515508   1.27866958 
N   -1.34795037  -0.73729664  -1.02542103 
C   -1.17198978  -1.88365036  -1.93456032 
H   -0.59558529  -1.55530562  -2.79023155 
H   -2.16386811  -2.29206793  -2.20546355 
H   -0.65597614  -2.70277417  -1.45659741 
C   -2.07901848   0.32013237  -1.75904914 
H   -2.20941258   1.19901209  -1.14331298 
H   -3.07529899  -0.02368012  -2.08257959 
H   -1.49319860   0.56346954  -2.63668909 
C   -1.71749901  -0.98269112   1.50295845 
C   -1.53843127  -2.13466533   2.32354534 
C   -1.20938224  -1.98317139   3.66390771 
C   -1.09354020  -0.69802706   4.21302093 
C   -1.24899373   0.45454786   3.42006541 
C   -1.45913051   0.23607326   2.09036547 
H   -0.87058254  -0.57924610   5.27985397 
H   -1.28464639   1.44211914   3.85492549 
H   -1.56121075  -3.13472926   1.86429914 
H   -1.04545682  -2.86170218   4.28397729 
H   -1.95936615   2.94794388   1.35758545 
C   -2.23592693  -1.18712584   0.12616451 
H   -3.16264830  -0.60802798   0.06897610 
H   -2.46961730  -2.24364924  -0.05824031 
O    2.05362804  -0.39035278  -1.34336619 
C    2.19924701  -0.53704104  -2.63577771 
O    1.33329325  -0.65782086  -3.47990338 
C    3.70315332  -0.56145113  -3.00579719 
H    3.95261289  -1.56556840  -3.35119932 
H    4.33833109  -0.25048553  -2.20851747 
H    3.84482217   0.07083894  -3.87756561 
*
