! EnGrad PBEh-3c
%output 
xyzfile=True 
end 
%scf 
maxiter 250 
end
%output
Print[P_Hirshfeld] = 1
end
% maxcore
4000
*xyz 0 1
Pd   0.45516527   0.26990653  -0.28047880 
O    1.85647862   1.30363903   0.59140320 
C    1.59947229   2.59641183   0.26766189 
O    0.58325531   2.94990938  -0.28138477 
C    2.71455716   3.57095341   0.60961444 
H    2.22805447   4.43931843   1.01777467 
H    3.17481332   3.88541506  -0.31434734 
H    3.50307087   3.24674104   1.28018437 
N   -1.34265787  -0.73040031  -1.03490717 
C   -1.16200932  -1.87676038  -1.93632591 
H   -0.57788927  -1.54194108  -2.77937879 
H   -2.14318455  -2.27957212  -2.19992187 
H   -0.64943603  -2.70177223  -1.46406370 
C   -2.07411115   0.32704322  -1.75901837 
H   -2.21441146   1.20183908  -1.13266291 
H   -3.06403005  -0.01535368  -2.07737449 
H   -1.49250448   0.57968207  -2.63034026 
C   -1.72740289  -0.96136311   1.51268865 
C   -1.55531450  -2.11519572   2.32045703 
C   -1.22132436  -1.97050616   3.66220332 
C   -1.10326694  -0.68265270   4.21608264 
C   -1.23622798   0.46859678   3.42619507 
C   -1.45622670   0.26745862   2.08960056 
H   -0.88705649  -0.57553812   5.28652947 
H   -1.26276894   1.46145542   3.84922882 
H   -1.53117347  -3.10664499   1.83677080 
H   -0.99405831  -2.85403393   4.26448637 
H   -1.93590889   2.76000104   1.37710787 
C   -2.22432754  -1.17068474   0.12064596 
H   -3.15620850  -0.60591171   0.03203700 
H   -2.43075859  -2.23002036  -0.07221211 
O    2.06306447  -0.40593410  -1.32337138 
C    2.18392050  -0.53405895  -2.61601742 
O    1.30859136  -0.62640117  -3.46411814 
C    3.68372058  -0.57653218  -3.00738641 
H    3.94647004  -1.58276386  -3.34438016 
H    4.30654885  -0.25742569  -2.18395600 
H    3.83833334   0.06117037  -3.87499117 
*
