! EnGrad PBEh-3c
%output 
xyzfile=True 
end 
%scf 
maxiter 250 
end
%output
Print[P_Hirshfeld] = 1
end
% maxcore
4000
*xyz 0 1
Pd   0.40634277   0.23168597  -0.22546001 
O    1.99652493   1.30687710   0.66497451 
C    1.64456194   2.63526065   0.27132503 
O    0.72601590   2.84872395  -0.22277439 
C    2.77186335   3.65631420   0.61463257 
H    2.28576051   4.54918925   1.03011735 
H    3.21967852   3.96298032  -0.32561711 
H    3.54142547   3.32241665   1.28657884 
N   -1.39772022  -0.78109475  -1.01514836 
C   -1.20845049  -1.93850661  -1.88723768 
H   -0.69817734  -1.67693327  -2.78872918 
H   -2.18613816  -2.29782475  -2.24452293 
H   -0.65141905  -2.69268113  -1.37092943 
C   -2.06346771   0.28028576  -1.78095360 
H   -2.17262321   1.18091127  -1.21964352 
H   -3.04557420  -0.07451123  -2.10094013 
H   -1.48942118   0.49654430  -2.67783735 
C   -1.60837227  -1.05068732   1.45835400 
C   -1.42915766  -2.19434433   2.33897872 
C   -1.20036318  -2.01492005   3.66960937 
C   -1.03335224  -0.75528538   4.19440960 
C   -1.28755983   0.37717484   3.37296852 
C   -1.54680709   0.16188442   2.06627860 
H   -0.81273763  -0.60946848   5.24311508 
H   -1.26573774   1.31324169   3.86331011 
H   -1.77749149  -3.15386362   2.03103383 
H   -1.29808150  -2.85913768   4.35533051 
H   -1.95562858   3.46697118   1.28304442 
C   -2.27850439  -1.21333784   0.16252154 
H   -3.20404254  -0.62033952   0.18682659 
H   -2.67090356  -2.22333482   0.03134793 
O    1.94693059  -0.25708027  -1.39733401 
C    2.21565981  -0.54209097  -2.67921997 
O    1.47303452  -0.87538632  -3.51560269 
C    3.74834043  -0.47658646  -3.04623947 
H    4.02701240  -1.49249504  -3.38872977 
H    4.43779753  -0.19459426  -2.32025792 
H    3.83883388   0.20366546  -3.91812186 
*
