! EnGrad PBEh-3c
%output 
xyzfile=True 
end 
%scf 
maxiter 250 
end
%output
Print[P_Hirshfeld] = 1
end
% maxcore
4000
*xyz 0 1
Pd   0.41186118   0.23548197  -0.22032718 
O    1.98675131   1.31174432   0.65938149 
C    1.71564874   2.60896848   0.31166861 
O    0.65786445   2.86747721  -0.26055670 
C    2.76655300   3.65654040   0.61301654 
H    2.28581067   4.54818827   1.02973683 
H    3.22034447   3.96319810  -0.32623053 
H    3.54200770   3.32105741   1.28735749 
N   -1.39976246  -0.78113579  -1.01451475 
C   -1.21046939  -1.93795351  -1.89037908 
H   -0.69426319  -1.67327849  -2.79044807 
H   -2.18597572  -2.29818640  -2.24217286 
H   -0.65061359  -2.69483136  -1.37147315 
C   -2.06486918   0.27893284  -1.78311296 
H   -2.17375904   1.18395804  -1.21596085 
H   -3.04671429  -0.07367260  -2.10030211 
H   -1.48902698   0.49773206  -2.67718420 
C   -1.61147243  -1.05537492   1.46434295 
C   -1.43316178  -2.18736582   2.33486198 
C   -1.19778019  -2.01691014   3.67246582 
C   -1.03767934  -0.74985732   4.19245195 
C   -1.28443964   0.37471851   3.37861424 
C   -1.54387816   0.16484282   2.06716314 
H   -0.81318254  -0.60861127   5.24317931 
H   -1.26685085   1.31818874   3.86332071 
H   -1.77369613  -3.15670816   2.02677429 
H   -1.29404657  -2.85880956   4.35353604 
H   -1.95709517   3.45928602   1.28438052 
C   -2.27877418  -1.21207411   0.15745175 
H   -3.20169334  -0.62015191   0.18550580 
H   -2.66638401  -2.22504725   0.02965629 
O    1.95479782  -0.26234478  -1.40101249 
C    2.22431385  -0.53740158  -2.66334591 
O    1.45847684  -0.87454617  -3.53086880 
C    3.74193210  -0.48037602  -3.05104620 
H    4.02466284  -1.49234773  -3.38772249 
H    4.44199788  -0.19359458  -2.31280602 
H    3.84062244   0.19974395  -3.91603420 
*
