! EnGrad PBEh-3c
%output 
xyzfile=True 
end 
%scf 
maxiter 250 
end
%output
Print[P_Hirshfeld] = 1
end
% maxcore
4000
*xyz 0 1
Pd   0.41842311   0.24944898  -0.20768693 
O    1.97529950   1.30977931   0.65166740 
C    1.72104678   2.59315237   0.32114750 
O    0.64167183   2.87457923  -0.27127412 
C    2.76374107   3.65575632   0.61209138 
H    2.28337141   4.54532070   1.02878065 
H    3.22059421   3.96341088  -0.32721475 
H    3.54296790   3.32028875   1.28796918 
N   -1.40604144  -0.78295882  -1.02250959 
C   -1.20951161  -1.93871333  -1.89972432 
H   -0.68562507  -1.66170140  -2.79362368 
H   -2.18684926  -2.29687244  -2.23608546 
H   -0.65045256  -2.69768272  -1.37599964 
C   -2.06953644   0.28346028  -1.78501130 
H   -2.17662366   1.18911736  -1.20738647 
H   -3.04906775  -0.07216747  -2.09724593 
H   -1.48808480   0.50121378  -2.67482265 
C   -1.62304924  -1.05454074   1.47359561 
C   -1.44241035  -2.18023702   2.33276646 
C   -1.18795313  -2.01795730   3.67275726 
C   -1.04949883  -0.74365123   4.19194110 
C   -1.27902786   0.37773320   3.38474925 
C   -1.53565770   0.16799887   2.07269525 
H   -0.81468472  -0.60607253   5.24274951 
H   -1.27309945   1.32633989   3.86223449 
H   -1.75893865  -3.16057090   2.01554358 
H   -1.28154320  -2.85897159   4.34913191 
H   -1.96175188   3.43952613   1.28842907 
C   -2.27686712  -1.21241528   0.15416433 
H   -3.19524576  -0.62048654   0.18176078 
H   -2.65277551  -2.22938912   0.02346208 
O    1.97782204  -0.27287214  -1.39730876 
C    2.21922861  -0.53903627  -2.65848913 
O    1.44239994  -0.86244070  -3.54732290 
C    3.73793537  -0.48622460  -3.04806490 
H    4.01660050  -1.49584762  -3.38495263 
H    4.44678130  -0.19539952  -2.30105379 
H    3.84426835   0.18824742  -3.91267946 
*
