! EnGrad PBEh-3c
%output 
xyzfile=True 
end 
%scf 
maxiter 250 
end
%output
Print[P_Hirshfeld] = 1
end
% maxcore
4000
*xyz 0 1
Pd   0.43403852   0.25743904  -0.20810496 
O    1.94891575   1.35411761   0.63305925 
C    1.67796779   2.55329851   0.30188479 
O    0.68728885   2.86479830  -0.24320200 
C    2.75413088   3.65026113   0.61371348 
H    2.28075307   4.54134157   1.02748279 
H    3.21956174   3.96269728  -0.32913790 
H    3.54267382   3.31914498   1.28772026 
N   -1.40049220  -0.77429835  -1.00385724 
C   -1.21606237  -1.92946405  -1.90672473 
H   -0.67565964  -1.64744822  -2.80305423 
H   -2.18821004  -2.29751633  -2.23675785 
H   -0.64847856  -2.70026626  -1.38469532 
C   -2.07140505   0.27973551  -1.78513369 
H   -2.18021509   1.19444434  -1.19555248 
H   -3.05752911  -0.06628224  -2.09601387 
H   -1.48988773   0.51029785  -2.67225197 
C   -1.62772521  -1.07141087   1.48328530 
C   -1.44665515  -2.16496627   2.32236350 
C   -1.18392210  -2.01251472   3.67492642 
C   -1.05400730  -0.73725102   4.19337894 
C   -1.27759393   0.37158435   3.40156256 
C   -1.53259321   0.18157735   2.06737253 
H   -0.82030339  -0.60314175   5.24074850 
H   -1.28364120   1.34116414   3.86420576 
H   -1.73513171  -3.16309153   2.00067043 
H   -1.25820109  -2.85949687   4.34331373 
H   -1.96868475   3.41042799   1.29519328 
C   -2.27330147  -1.20820562   0.13289622 
H   -3.19159856  -0.62368185   0.17536936 
H   -2.63463201  -2.23615109   0.01870471 
O    1.98284815  -0.29240918  -1.41436413 
C    2.22126612  -0.54002328  -2.65219643 
O    1.44315240  -0.83183405  -3.52599155 
C    3.71798678  -0.50200148  -3.05582878 
H    4.00695670  -1.50098224  -3.37711380 
H    4.44897656  -0.20076751  -2.28367121 
H    3.84797865   0.16939742  -3.90519979 
*
