! EnGrad PBEh-3c
%output 
xyzfile=True 
end 
%scf 
maxiter 250 
end
%output
Print[P_Hirshfeld] = 1
end
% maxcore
4000
*xyz 0 1
Pd   0.49844552   0.28805515  -0.21375995 
O    1.85985401   1.33577190   0.59500146 
C    1.69673600   2.56371566   0.29678487 
O    0.64684771   2.88566278  -0.25415682 
C    2.71426141   3.59277215   0.60839191 
H    2.26209231   4.51480559   1.02249418 
H    3.20618099   3.94718428  -0.32439980 
H    3.53457100   3.31222388   1.28294251 
N   -1.36821171  -0.74364586  -0.96801931 
C   -1.20508821  -1.89546728  -1.92620513 
H   -0.62931309  -1.58711003  -2.82281087 
H   -2.19741395  -2.30622683  -2.22993467 
H   -0.65120177  -2.70577636  -1.42872730 
C   -2.08005982   0.29366593  -1.76523840 
H   -2.19704328   1.20078632  -1.15842175 
H   -3.09161610  -0.04235658  -2.09269219 
H   -1.49236885   0.54443502  -2.66017891 
C   -1.67860916  -1.05372901   1.48352226 
C   -1.48318597  -2.15614456   2.32563818 
C   -1.18222795  -1.98707867   3.66822817 
C   -1.07111069  -0.73652879   4.21892357 
C   -1.27281572   0.40731228   3.42415348 
C   -1.49474822   0.21691374   2.07476494 
H   -0.84595092  -0.58751929   5.24576223 
H   -1.31171754   1.40363548   3.86680979 
H   -1.63031529  -3.16238139   1.92817490 
H   -1.14842312  -2.86443477   4.31589776 
H   -1.98941470   3.23362492   1.32696108 
C   -2.25210163  -1.20284194   0.09434947 
H   -3.17686229  -0.62256880   0.13583375 
H   -2.54754157  -2.25758957  -0.01559763 
O    2.01099965  -0.36487271  -1.40940811 
C    2.25375705  -0.54271246  -2.64989525 
O    1.38512738  -0.71149675  -3.49137500 
C    3.68844658  -0.54382924  -3.02654698 
H    3.96792333  -1.53435540  -3.35596143 
H    4.41290770  -0.23442017  -2.24053377 
H    3.85942452   0.09878576  -3.88441884 
*
