! EnGrad PBEh-3c
%output 
xyzfile=True 
end 
%scf 
maxiter 250 
end
%output
Print[P_Hirshfeld] = 1
end
% maxcore
4000
*xyz 0 1
Pd   0.46817602   0.27313850  -0.21053262 
O    1.90059311   1.35236487   0.61127493 
C    1.69636480   2.54873352   0.30486065 
O    0.66088323   2.87739229  -0.25196119 
C    2.73231514   3.62063222   0.61082600 
H    2.27137369   4.52838360   1.02505246 
H    3.21313773   3.95523856  -0.32719248 
H    3.53881359   3.31560651   1.28548387 
N   -1.38421388  -0.75826569  -0.98331168 
C   -1.21140630  -1.91176590  -1.91683391 
H   -0.65165223  -1.61633693  -2.81404766 
H   -2.19321824  -2.30219295  -2.23354718 
H   -0.64957377  -2.70337970  -1.40713909 
C   -2.07583606   0.28604216  -1.77519721 
H   -2.18886566   1.19810946  -1.17608552 
H   -3.07553437  -0.05395417  -2.09443002 
H   -1.49117130   0.52803735  -2.66632497 
C   -1.65353788  -1.06429978   1.48372560 
C   -1.46505561  -2.15999269   2.32382062 
C   -1.18269982  -1.99857996   3.67128802 
C   -1.06262698  -0.73754117   4.20715062 
C   -1.27522401   0.38927133   3.41403286 
C   -1.51349086   0.20048552   2.07070810 
H   -0.83353121  -0.59508456   5.24247173 
H   -1.29847366   1.37353727   3.86570123 
H   -1.68127591  -3.16288333   1.96353375 
H   -1.20208825  -2.86224190   4.32949025 
H   -1.97976006   3.32090873   1.31146925 
C   -2.26224722  -1.20512434   0.11104830 
H   -3.18407267  -0.62333099   0.15547284 
H   -2.59007416  -2.24752071   0.00148314 
O    1.99702474  -0.33029119  -1.41414332 
C    2.23984274  -0.54094266  -2.64897737 
O    1.41295998  -0.76982558  -3.50845779 
C    3.70091896  -0.52414058  -3.04198416 
H    3.98678656  -1.51784478  -3.36598670 
H    4.43164473  -0.21783839  -2.26074121 
H    3.85423249   0.13286738  -3.89430135 
*
