! EnGrad PBEh-3c
%output 
xyzfile=True 
end 
%scf 
maxiter 250 
end
%output
Print[P_Hirshfeld] = 1
end
% maxcore
4000
*xyz -1 1
Pt  -0.55778046  -0.73107626   0.38901606 
Cl  -0.11971736  -0.25954137   2.61935490 
Cl  -2.56381076  -1.96249076   1.11084110 
Cl  -1.26318461  -1.20676252  -1.79395254 
C    0.79525474   0.91587935  -0.48235987 
H    1.39207659   1.54791923   0.18882061 
H    1.02105881  -0.56578319   0.15945329 
H    1.36937680   0.73206052  -1.39463943 
H   -0.07397290   1.53036346  -0.79538736 
*
