! EnGrad PBEh-3c
%output 
xyzfile=True 
end 
%scf 
maxiter 250 
end
%output
Print[P_Hirshfeld] = 1
end
% maxcore
4000
*xyz -1 1
Pt  -0.51755969  -0.73536915   0.38530454 
Cl  -0.13434962  -0.28277707   2.62835724 
Cl  -2.53557727  -1.96434026   1.10424667 
Cl  -1.28645546  -1.19222092  -1.78087844 
C    0.80502912   0.89620711  -0.47790051 
H    1.39208604   1.55419230   0.18024513 
H    0.94505434  -0.48432540   0.15931323 
H    1.39184637   0.71622745  -1.38919352 
H   -0.06110256   1.49216433  -0.80836335 
*
