! EnGrad PBEh-3c
%output 
xyzfile=True 
end 
%scf 
maxiter 250 
end
%output
Print[P_Hirshfeld] = 1
end
% maxcore
4000
*xyz -1 1
Pt  -0.58566908  -0.73260091   0.39422086 
Cl  -0.11611633  -0.25925386   2.61976164 
Cl  -2.55901789  -1.96138058   1.10947895 
Cl  -1.26045443  -1.20693326  -1.79572332 
C    0.79276211   0.92145670  -0.48335636 
H    1.39169782   1.54708085   0.18772655 
H    1.03670363  -0.56992749   0.15731630 
H    1.36968906   0.73211062  -1.39398351 
H   -0.07021881   1.52945999  -0.79466807 
*
