! EnGrad PBEh-3c
%output 
xyzfile=True 
end 
%scf 
maxiter 250 
end
%output
Print[P_Hirshfeld] = 1
end
% maxcore
4000
*xyz -1 1
Pt  -0.54136754  -0.73313868   0.38677879 
Cl  -0.12845035  -0.27782930   2.62575914 
Cl  -2.52271520  -1.95530167   1.10081844 
Cl  -1.27622669  -1.19299458  -1.78262669 
C    0.79772988   0.89508754  -0.47665654 
H    1.38961585   1.54367614   0.18504642 
H    0.95400555  -0.48321570   0.14969277 
H    1.38628399   0.71196731  -1.38514332 
H   -0.06012273   1.49069607  -0.80267750 
*
