! EnGrad PBEh-3c
%output 
xyzfile=True 
end 
%scf 
maxiter 250 
end
%output
Print[P_Hirshfeld] = 1
end
% maxcore
4000
*xyz -1 1
Pt  -0.58353333  -0.73065287   0.38992767 
Cl  -0.12019489  -0.27507722   2.62232043 
Cl  -2.47746297  -1.93412828   1.08978648 
Cl  -1.26108616  -1.18810769  -1.78328381 
C    0.78970966   0.88113506  -0.47016834 
H    1.37995641   1.51572414   0.19450449 
H    0.95305204  -0.43857991   0.12658897 
H    1.37920837   0.69004367  -1.36992722 
H   -0.06174514   1.47611711  -0.79865051 
*
