! EnGrad PBEh-3c
%output 
xyzfile=True 
end 
%scf 
maxiter 250 
end
%output
Print[P_Hirshfeld] = 1
end
% maxcore
4000
*xyz -1 1
Pt  -0.62201858  -0.72028265   0.39486037 
Cl  -0.10371836  -0.26023301   2.61429831 
Cl  -2.44678995  -1.91354057   1.08311776 
Cl  -1.23443756  -1.19007660  -1.79490359 
C    0.78020584   0.86422351  -0.46036637 
H    1.37035714   1.48352307   0.21214219 
H    0.96374426  -0.41772290   0.09847485 
H    1.36197853   0.67205514  -1.35889852 
H   -0.07226848   1.47593223  -0.78736120 
*
