21
Coordinates from ORCA-job reaction-0-ieip_optts_Compound_1 E -737.108481698962
  C      -1.481690      0.233460     -0.407290
  C      -2.004650     -0.798240     -1.172260
  C      -1.615370     -2.106440     -0.921350
  C      -0.755530     -2.384240      0.134850
  C      -0.561410     -0.001380      0.643850
  C      -0.243230     -1.351310      0.898960
  H      -1.785280      1.244320     -0.655640
  H      -2.682940     -0.581130     -1.988200
  H      -1.964410     -2.908300     -1.561390
  H       0.460220     -1.588880      1.685930
  H      -0.451130     -3.403620      0.330450
  Pd      1.239710      0.956890     -0.050240
  O       3.060260      1.223580     -1.170620
  O       2.421230     -0.661500     -0.306970
  O       0.356620      2.735440      0.199130
  C      -0.129880      2.933650      1.346190
  O      -0.279900      2.089130      2.244200
  H      -0.456830      0.928350      1.628940
  C       3.247150      0.002730     -0.997270
  H       4.110790     -0.512960     -1.438400
  H      -0.483200      3.947960      1.555850
21
Coordinates from ORCA-job reaction-0-ieip_optts_Compound_1 E -737.110839923983
  C      -1.459134      0.225059     -0.454428
  C      -2.026025     -0.814435     -1.175226
  C      -1.669512     -2.123900     -0.886362
  C      -0.791774     -2.395043      0.156992
  C      -0.526043     -0.007279      0.580655
  C      -0.232954     -1.353592      0.873777
  H      -1.741154      1.238658     -0.716678
  H      -2.719378     -0.605219     -1.979928
  H      -2.064043     -2.935861     -1.484910
  H       0.475626     -1.581197      1.659717
  H      -0.518380     -3.416969      0.382805
  Pd      1.262535      0.970216     -0.064783
  O       3.105673      1.275047     -1.117759
  O       2.439256     -0.646540     -0.357973
  O       0.388680      2.749007      0.232700
  C      -0.129140      2.917978      1.368010
  O      -0.326394      2.041461      2.230299
  H      -0.451477      0.927949      1.570280
  C       3.286971      0.046360     -0.991301
  H       4.165780     -0.447535     -1.426676
  H      -0.468584      3.933343      1.599510
21
Coordinates from ORCA-job reaction-0-ieip_optts_Compound_1 E -737.113140594907
  C      -1.433941      0.216377     -0.501459
  C      -2.036398     -0.829667     -1.182315
  C      -1.711963     -2.137644     -0.853388
  C      -0.823340     -2.401644      0.182753
  C      -0.494573     -0.012219      0.525030
  C      -0.224720     -1.353917      0.855478
  H      -1.694490      1.231011     -0.781577
  H      -2.738011     -0.628474     -1.981453
  H      -2.145049     -2.957376     -1.412919
  H       0.486796     -1.571992      1.641904
  H      -0.578996     -3.423613      0.439745
  Pd      1.279105      0.983172     -0.077902
  O       3.139712      1.317937     -1.072071
  O       2.446910     -0.633725     -0.416706
  O       0.422483      2.761375      0.272434
  C      -0.128039      2.904090      1.393750
  O      -0.379871      2.000921      2.216290
  H      -0.458565      0.919391      1.522288
  C       3.314662      0.083208     -0.993390
  H       4.205520     -0.391128     -1.425840
  H      -0.446701      3.921425      1.648067
21
Coordinates from ORCA-job reaction-0-ieip_optts_Compound_1 E -737.115293602964
  C      -1.418556      0.206624     -0.545651
  C      -2.049151     -0.846304     -1.188914
  C      -1.748881     -2.150206     -0.822576
  C      -0.848918     -2.403986      0.206278
  C      -0.472488     -0.014528      0.473918
  C      -0.218878     -1.350060      0.838663
  H      -1.663520      1.220014     -0.843890
  H      -2.759465     -0.655232     -1.982552
  H      -2.214003     -2.976744     -1.344862
  H       0.496240     -1.557254      1.625050
  H      -0.626175     -3.423153      0.492599
  Pd      1.296263      0.995157     -0.089816
  O       3.178351      1.354935     -1.021583
  O       2.452400     -0.620700     -0.481424
  O       0.463385      2.771656      0.315967
  C      -0.123763      2.891302      1.420427
  O      -0.435822      1.967353      2.198704
  H      -0.473870      0.905917      1.472154
  C       3.342398      0.115522     -0.996177
  H       4.242568     -0.343172     -1.426233
  H      -0.417585      3.910369      1.698636
21
Coordinates from ORCA-job reaction-0-ieip_optts_Compound_1 E -737.117005000931
  C      -1.409341      0.195734     -0.583953
  C      -2.066402     -0.861723     -1.191639
  C      -1.785826     -2.160821     -0.793123
  C      -0.872443     -2.405415      0.226020
  C      -0.454098     -0.017662      0.427476
  C      -0.213924     -1.347362      0.821383
  H      -1.642330      1.206977     -0.898471
  H      -2.787175     -0.679080     -1.977660
  H      -2.280443     -2.991591     -1.280321
  H       0.506519     -1.545850      1.605291
  H      -0.666992     -3.420875      0.537509
  Pd      1.315005      1.003957     -0.099403
  O       3.217078      1.388538     -0.966674
  O       2.465166     -0.606720     -0.544731
  O       0.506243      2.777204      0.356058
  C      -0.119470      2.878658      1.440992
  O      -0.489408      1.941358      2.176151
  H      -0.489676      0.890695      1.421964
  C       3.373704      0.147500     -0.996254
  H       4.283715     -0.294565     -1.422989
  H      -0.389373      3.898553      1.741094
21
Coordinates from ORCA-job reaction-0-ieip_optts_Compound_1 E -737.118263022836
  C      -1.402420      0.184759     -0.615328
  C      -2.087557     -0.873299     -1.188891
  C      -1.824987     -2.167971     -0.763789
  C      -0.895527     -2.407461      0.241957
  C      -0.435623     -0.024042      0.385672
  C      -0.208116     -1.348853      0.802942
  H      -1.624901      1.194132     -0.942906
  H      -2.820910     -0.695078     -1.964167
  H      -2.349407     -2.999370     -1.217517
  H       0.519612     -1.542036      1.581445
  H      -0.705377     -3.419398      0.573891
  Pd      1.335593      1.009911     -0.105107
  O       3.255721      1.419770     -0.911434
  O       2.488594     -0.589685     -0.599147
  O       0.545960      2.779165      0.388307
  C      -0.118805      2.865624      1.452151
  O      -0.538898      1.919349      2.146516
  H      -0.501763      0.870642      1.370851
  C       3.409511      0.180705     -0.992833
  H       4.329295     -0.244248     -1.415869
  H      -0.369466      3.884893      1.771976
21
Coordinates from ORCA-job reaction-0-ieip_optts_Compound_1 E -737.119097368101
  C      -1.393900      0.175256     -0.640436
  C      -2.100278     -0.882043     -1.188004
  C      -1.853831     -2.172502     -0.739878
  C      -0.914354     -2.409146      0.257760
  C      -0.421203     -0.031403      0.355238
  C      -0.204943     -1.351568      0.792582
  H      -1.607233      1.183226     -0.978089
  H      -2.841483     -0.706506     -1.956363
  H      -2.401295     -3.002850     -1.167497
  H       0.526408     -1.540363      1.568752
  H      -0.737846     -3.417743      0.606781
  Pd      1.351742      1.013469     -0.107324
  O       3.288234      1.443027     -0.864501
  O       2.504892     -0.572104     -0.649619
  O       0.580668      2.778992      0.419211
  C      -0.120339      2.855600      1.461666
  O      -0.587432      1.905044      2.116653
  H      -0.513055      0.851404      1.326497
  C       3.436229      0.208045     -0.995217
  H       4.361229     -0.204363     -1.419112
  H      -0.351681      3.874039      1.799618
21
Coordinates from ORCA-job reaction-0-ieip_optts_Compound_1 E -737.119626706181
  C      -1.385862      0.168048     -0.656566
  C      -2.096569     -0.890897     -1.194708
  C      -1.859535     -2.177715     -0.729885
  C      -0.922644     -2.409869      0.272008
  C      -0.417251     -0.035093      0.343777
  C      -0.207677     -1.351095      0.796627
  H      -1.594214      1.174724     -1.001122
  H      -2.835948     -0.719539     -1.965728
  H      -2.414027     -3.008866     -1.146769
  H       0.519919     -1.534514      1.577622
  H      -0.754559     -3.415594      0.633201
  Pd      1.358253      1.015143     -0.104129
  O       3.305975      1.450093     -0.833269
  O       2.497197     -0.560341     -0.697197
  O       0.613540      2.779312      0.454564
  C      -0.119394      2.855514      1.475765
  O      -0.634604      1.907973      2.095368
  H      -0.526904      0.844769      1.301416
  C       3.439942      0.219676     -1.008865
  H       4.362727     -0.188548     -1.441453
  H      -0.327836      3.874327      1.828065
21
Coordinates from ORCA-job reaction-0-ieip_optts_Compound_1 E -737.119989658680
  C      -1.380077      0.162213     -0.667367
  C      -2.083484     -0.901123     -1.206149
  C      -1.849978     -2.184457     -0.729488
  C      -0.923232     -2.409037      0.283719
  C      -0.420677     -0.033604      0.343181
  C      -0.214223     -1.346062      0.807769
  H      -1.586582      1.166878     -1.018896
  H      -2.815044     -0.736020     -1.985907
  H      -2.400010     -3.018914     -1.145663
  H       0.506056     -1.523149      1.597020
  H      -0.758459     -3.412081      0.653809
  Pd      1.358036      1.015774     -0.097078
  O       3.311299      1.445233     -0.812822
  O       2.472579     -0.554949     -0.740428
  O       0.646618      2.780981      0.493728
  C      -0.114657      2.861951      1.493428
  O      -0.676529      1.921090      2.080685
  H      -0.541260      0.851949      1.291241
  C       3.426985      0.219391     -1.027803
  H       4.343668     -0.189278     -1.472807
  H      -0.300498      3.880724      1.858551
21
Coordinates from ORCA-job reaction-0-ieip_optts_Compound_1 E -737.120235640903
  C      -1.371683      0.156734     -0.681136
  C      -2.062494     -0.913333     -1.222936
  C      -1.833102     -2.191848     -0.731767
  C      -0.922636     -2.405129      0.298371
  C      -0.427039     -0.028025      0.344926
  C      -0.224012     -1.335844      0.823441
  H      -1.575070      1.157880     -1.044401
  H      -2.780692     -0.757195     -2.016822
  H      -2.373543     -3.031437     -1.150099
  H       0.486165     -1.504376      1.623706
  H      -0.761060     -3.404510      0.679630
  Pd      1.353573      1.017987     -0.088752
  O       3.311484      1.434575     -0.799357
  O       2.436025     -0.550165     -0.784547
  O       0.679115      2.784107      0.539268
  C      -0.107888      2.868204      1.517244
  O      -0.711346      1.932360      2.071386
  H      -0.554670      0.867513      1.287289
  C       3.403556      0.214062     -1.052266
  H       4.310985     -0.198439     -1.512560
  H      -0.275139      3.884390      1.898101
21
Coordinates from ORCA-job reaction-0-ieip_optts_Compound_1 E -737.120390996603
  C      -1.363348      0.151843     -0.698827
  C      -2.037561     -0.927455     -1.243291
  C      -1.811405     -2.199787     -0.734869
  C      -0.920815     -2.397822      0.315151
  C      -0.437092     -0.018469      0.345669
  C      -0.236463     -1.319765      0.841262
  H      -1.562989      1.148040     -1.077483
  H      -2.739264     -0.783505     -2.054052
  H      -2.338378     -3.046500     -1.155902
  H       0.461277     -1.476455      1.654838
  H      -0.761392     -3.392366      0.709738
  Pd      1.346938      1.020916     -0.080206
  O       3.308664      1.419714     -0.789430
  O       2.391597     -0.545391     -0.830203
  O       0.713234      2.786489      0.590592
  C      -0.098023      2.872172      1.546820
  O      -0.740276      1.940610      2.065393
  H      -0.569407      0.887725      1.283362
  C       3.373848      0.205775     -1.079701
  H       4.270588     -0.211994     -1.556004
  H      -0.249205      3.883735      1.945864
21
Coordinates from ORCA-job reaction-0-ieip_optts_Compound_1 E -737.120485373713
  C      -1.356793      0.147272     -0.717952
  C      -2.012419     -0.942647     -1.263905
  C      -1.786406     -2.208153     -0.738624
  C      -0.915741     -2.388671      0.330677
  C      -0.449180     -0.006172      0.344722
  C      -0.249169     -1.300142      0.858237
  H      -1.554227      1.137866     -1.112038
  H      -2.698170     -0.812560     -2.090486
  H      -2.297562     -3.063269     -1.162059
  H       0.434820     -1.443074      1.685972
  H      -0.756147     -3.377893      0.738375
  Pd      1.340234      1.025848     -0.070624
  O       3.306740      1.400821     -0.783526
  O       2.344116     -0.540185     -0.870920
  O       0.749247      2.788573      0.646193
  C      -0.086937      2.875765      1.579727
  O      -0.770188      1.950593      2.057580
  H      -0.588161      0.909755      1.274540
  C       3.341615      0.194497     -1.107435
  H       4.225637     -0.231664     -1.599889
  H      -0.220778      3.880949      2.000154
21
Coordinates from ORCA-job reaction-0-ieip_optts_Compound_1 E -737.120576750890
  C      -1.355255      0.142434     -0.735703
  C      -1.993979     -0.957875     -1.280571
  C      -1.763789     -2.216847     -0.741402
  C      -0.907923     -2.380005      0.342263
  C      -0.462534      0.006354      0.341371
  C      -0.259885     -1.280598      0.870698
  H      -1.553645      1.127570     -1.142516
  H      -2.668562     -0.841208     -2.118246
  H      -2.259977     -3.080400     -1.165466
  H       0.412277     -1.410040      1.710337
  H      -0.744720     -3.364278      0.760433
  Pd      1.335595      1.028991     -0.063109
  O       3.304339      1.382814     -0.776192
  O       2.302263     -0.536869     -0.907924
  O       0.787198      2.785765      0.701389
  C      -0.073910      2.878560      1.610623
  O      -0.804606      1.966861      2.042179
  H      -0.611261      0.933330      1.259096
  C       3.314651      0.184183     -1.129571
  H       4.189523     -0.247540     -1.633395
  H      -0.185269      3.876309      2.054428
21
Coordinates from ORCA-job reaction-0-ieip_optts_Compound_1 E -737.120624827785
  C      -1.350704      0.137896     -0.747533
  C      -1.978807     -0.968860     -1.291343
  C      -1.745893     -2.223331     -0.743648
  C      -0.900534     -2.374448      0.349583
  C      -0.468840      0.015269      0.340173
  C      -0.266375     -1.267680      0.879844
  H      -1.549520      1.118902     -1.163627
  H      -2.646134     -0.860524     -2.135914
  H      -2.231614     -3.092435     -1.168502
  H       0.396431     -1.389230      1.728087
  H      -0.734692     -3.355568      0.774174
  Pd      1.336346      1.032878     -0.047994
  O       3.306728      1.366766     -0.777347
  O       2.273525     -0.531690     -0.926751
  O       0.821065      2.784139      0.751300
  C      -0.068207      2.882818      1.634392
  O      -0.841608      1.985808      2.021654
  H      -0.633403      0.954774      1.243309
  C       3.292755      0.174593     -1.149746
  H       4.154473     -0.266125     -1.668369
  H      -0.164462      3.873559      2.096979
21
Coordinates from ORCA-job reaction-0-ieip_optts_Compound_1 E -737.120643568800
  C      -1.350510      0.135030     -0.754276
  C      -1.973403     -0.975401     -1.296499
  C      -1.738901     -2.227341     -0.743299
  C      -0.898081     -2.371925      0.354700
  C      -0.475873      0.018753      0.339568
  C      -0.271530     -1.260932      0.885816
  H      -1.550049      1.113969     -1.174704
  H      -2.637574     -0.871672     -2.144157
  H      -2.219649     -3.099431     -1.167762
  H       0.386733     -1.377592      1.738312
  H      -0.730392     -3.351454      0.782298
  Pd      1.336548      1.028256     -0.049207
  O       3.296852      1.366648     -0.779153
  O       2.259629     -0.537002     -0.943841
  O       0.839410      2.772071      0.779385
  C      -0.060237      2.882224      1.645372
  O      -0.864774      2.002122      2.002914
  H      -0.647015      0.969403      1.231889
  C       3.285536      0.174924     -1.157777
  H       4.151158     -0.260197     -1.674488
  H      -0.137347      3.867058      2.123631
21
Coordinates from ORCA-job reaction-0-ieip_optts_Compound_1 E -737.120636299088
  C      -1.342563      0.133817     -0.751777
  C      -1.970760     -0.973568     -1.294040
  C      -1.740582     -2.226367     -0.742545
  C      -0.899436     -2.374038      0.354298
  C      -0.465940      0.016013      0.341100
  C      -0.268022     -1.265885      0.885333
  H      -1.539866      1.113253     -1.172036
  H      -2.635827     -0.866275     -2.140565
  H      -2.225126     -3.096378     -1.166923
  H       0.389977     -1.386618      1.737393
  H      -0.735534     -3.354294      0.781682
  Pd      1.341571      1.034974     -0.035928
  O       3.303826      1.366248     -0.793127
  O       2.262739     -0.527730     -0.934449
  O       0.847063      2.781364      0.787863
  C      -0.068862      2.884917      1.643451
  O      -0.873789      2.000351      1.993147
  H      -0.646480      0.969066      1.228361
  C       3.283077      0.173403     -1.163530
  H       4.141733     -0.272841     -1.682518
  H      -0.156670      3.868097      2.123531
21
Coordinates from ORCA-job reaction-0-ieip_optts_Compound_1 E -737.120692451196
  C      -1.338192      0.134550     -0.754498
  C      -1.967786     -0.972325     -1.296055
  C      -1.743479     -2.224801     -0.739995
  C      -0.905336     -2.373441      0.359593
  C      -0.466859      0.013628      0.341573
  C      -0.271470     -1.266187      0.889942
  H      -1.530489      1.114236     -1.176570
  H      -2.629779     -0.865106     -2.145003
  H      -2.230193     -3.094017     -1.163527
  H       0.385347     -1.385993      1.743057
  H      -0.745450     -3.353426      0.789055
  Pd      1.344313      1.026330     -0.038877
  O       3.296406      1.374510     -0.794321
  O       2.263412     -0.532187     -0.944428
  O       0.841673      2.769256      0.790017
  C      -0.067348      2.879824      1.645009
  O      -0.868973      1.996866      2.001107
  H      -0.643648      0.964469      1.229231
  C       3.285326      0.181272     -1.168196
  H       4.150211     -0.257983     -1.682623
  H      -0.157156      3.868033      2.114228
21
Coordinates from ORCA-job reaction-0-ieip_optts_Compound_1 E -737.120676751814
  C      -1.341320      0.137331     -0.743163
  C      -1.972637     -0.966354     -1.289233
  C      -1.744016     -2.222146     -0.743090
  C      -0.901121     -2.376767      0.351698
  C      -0.462641      0.011791      0.347251
  C      -0.266443     -1.272282      0.886554
  H      -1.537309      1.119398     -1.158108
  H      -2.639048     -0.854207     -2.134060
  H      -2.231270     -3.089313     -1.170210
  H       0.392719     -1.397435      1.737064
  H      -0.738346     -3.359220      0.774406
  Pd      1.345311      1.028770     -0.033852
  O       3.300554      1.370419     -0.798549
  O       2.268290     -0.531052     -0.937313
  O       0.839763      2.776812      0.777388
  C      -0.074817      2.883762      1.633528
  O      -0.865395      1.994630      2.002020
  H      -0.638364      0.961310      1.238367
  C       3.287781      0.175407     -1.164084
  H       4.154656     -0.268754     -1.670988
  H      -0.175816      3.875411      2.093096
21
Coordinates from ORCA-job reaction-0-ieip_optts_Compound_1 E -737.120654778366
  C      -1.340218      0.139478     -0.741385
  C      -1.973383     -0.963098     -1.287780
  C      -1.746376     -2.219793     -0.742394
  C      -0.901926     -2.377115      0.351224
  C      -0.461318      0.009694      0.347718
  C      -0.263817     -1.274401      0.885507
  H      -1.535121      1.122683     -1.154166
  H      -2.640568     -0.849446     -2.131800
  H      -2.236078     -3.085689     -1.169292
  H       0.397844     -1.400771      1.733902
  H      -0.740384     -3.360219      0.772876
  Pd      1.345768      1.027140     -0.039704
  O       3.299843      1.372902     -0.796389
  O       2.266376     -0.534481     -0.938463
  O       0.825272      2.775082      0.766872
  C      -0.077058      2.883000      1.629434
  O      -0.856590      1.990758      2.010878
  H      -0.632558      0.953931      1.241953
  C       3.289455      0.177594     -1.162905
  H       4.161552     -0.266943     -1.660390
  H      -0.180184      3.877202      2.083022
21
Coordinates from ORCA-job reaction-0-ieip_optts_Compound_1 E -737.120641005750
  C      -1.346680      0.141137     -0.732305
  C      -1.982506     -0.958946     -1.280416
  C      -1.750581     -2.218087     -0.743254
  C      -0.899023     -2.379913      0.343809
  C      -0.459147      0.008426      0.350026
  C      -0.258842     -1.279118      0.879649
  H      -1.545653      1.126077     -1.139128
  H      -2.655462     -0.841626     -2.119326
  H      -2.242226     -3.082353     -1.171215
  H       0.407520     -1.409706      1.723739
  H      -0.733889     -3.364910      0.759628
  Pd      1.346370      1.026359     -0.038720
  O       3.300111      1.371552     -0.792033
  O       2.274819     -0.532916     -0.940898
  O       0.826128      2.778594      0.751389
  C      -0.079611      2.883759      1.618658
  O      -0.852393      1.988899      2.010112
  H      -0.630383      0.951717      1.249890
  C       3.296517      0.174477     -1.153155
  H       4.175511     -0.267146     -1.640984
  H      -0.190052      3.881234      2.063255
21
Coordinates from ORCA-job reaction-0-ieip_optts_Compound_1 E -737.120598140847
  C      -1.341579      0.142449     -0.735699
  C      -1.976958     -0.958363     -1.283268
  C      -1.748253     -2.216714     -0.742578
  C      -0.899123     -2.377858      0.346956
  C      -0.457963      0.009108      0.349363
  C      -0.258200     -1.277176      0.881682
  H      -1.538585      1.127171     -1.143973
  H      -2.647663     -0.842028     -2.124126
  H      -2.240417     -3.081065     -1.169791
  H       0.407217     -1.406376      1.726703
  H      -0.736391     -3.362301      0.764982
  Pd      1.345318      1.029456     -0.043882
  O       3.302969      1.370443     -0.799014
  O       2.266183     -0.535838     -0.938251
  O       0.813609      2.779058      0.752243
  C      -0.082200      2.883580      1.622774
  O      -0.851016      1.987060      2.015568
  H      -0.630469      0.946311      1.248399
  C       3.291705      0.173658     -1.160095
  H       4.172088     -0.272274     -1.641559
  H      -0.189743      3.879208      2.072284
21
Coordinates from ORCA-job reaction-0-ieip_optts_Compound_1 E -737.120685299468
  C      -1.340058      0.139153     -0.743486
  C      -1.969033     -0.965416     -1.290534
  C      -1.740695     -2.220909     -0.743059
  C      -0.899138     -2.375093      0.353130
  C      -0.463453      0.013500      0.348400
  C      -0.265333     -1.270210      0.887935
  H      -1.536376      1.121382     -1.157971
  H      -2.634143     -0.854378     -2.136533
  H      -2.227413     -3.088379     -1.170180
  H       0.393447     -1.394200      1.738963
  H      -0.736862     -3.357305      0.776570
  Pd      1.344482      1.027593     -0.038226
  O       3.300019      1.366011     -0.793687
  O       2.256886     -0.532689     -0.952215
  O       0.834181      2.773358      0.776245
  C      -0.074487      2.883064      1.634463
  O      -0.864024      1.995771      2.007199
  H      -0.645247      0.955855      1.242872
  C       3.283389      0.173231     -1.168390
  H       4.157479     -0.268937     -1.664454
  H      -0.173090      3.876109      2.091680
21
Coordinates from ORCA-job reaction-0-ieip_optts_Compound_1 E -737.120648590969
  C      -1.344154      0.143572     -0.728344
  C      -1.980233     -0.954914     -1.279407
  C      -1.748738     -2.215518     -0.745322
  C      -0.897232     -2.380627      0.341607
  C      -0.457608      0.007244      0.354375
  C      -0.256787     -1.281615      0.880582
  H      -1.542789      1.129689     -1.132420
  H      -2.652951     -0.835103     -2.118166
  H      -2.240525     -3.078476     -1.175792
  H       0.410153     -1.414542      1.723809
  H      -0.732321     -3.366923      0.754401
  Pd      1.346428      1.024684     -0.038048
  O       3.299540      1.371312     -0.798115
  O       2.277460     -0.540580     -0.923557
  O       0.814377      2.779185      0.742865
  C      -0.083128      2.886268      1.613732
  O      -0.849347      1.990805      2.014455
  H      -0.633835      0.945444      1.256709
  C       3.295491      0.172628     -1.153196
  H       4.170723     -0.269999     -1.646949
  H      -0.193996      3.884975      2.055501
21
Coordinates from ORCA-job reaction-0-ieip_optts_Compound_1 E -737.120700256041
  C      -1.342022      0.139583     -0.743484
  C      -1.969290     -0.965697     -1.291085
  C      -1.738827     -2.221176     -0.744498
  C      -0.897095     -2.374627      0.351583
  C      -0.464522      0.014902      0.347938
  C      -0.264760     -1.269073      0.886622
  H      -1.540013      1.121580     -1.157690
  H      -2.634527     -0.855353     -2.137070
  H      -2.223965     -3.089243     -1.172201
  H       0.394350     -1.392589      1.737471
  H      -0.733294     -3.356757      0.774634
  Pd      1.342531      1.029288     -0.038704
  O       3.302658      1.364597     -0.791001
  O       2.256299     -0.531816     -0.945681
  O       0.832084      2.776345      0.771996
  C      -0.073540      2.883715      1.634657
  O      -0.859871      1.994830      2.010860
  H      -0.646074      0.956511      1.244896
  C       3.283468      0.171655     -1.163804
  H       4.149836     -0.275874     -1.668568
  H      -0.172895      3.876708      2.091852
21
Coordinates from ORCA-job reaction-0-ieip_optts_Compound_1 E -737.120697884738
  C      -1.340773      0.140679     -0.736982
  C      -1.972151     -0.961170     -1.286617
  C      -1.742867     -2.218882     -0.744743
  C      -0.898363     -2.377720      0.348523
  C      -0.461186      0.010766      0.352213
  C      -0.262646     -1.275308      0.886198
  H      -1.537707      1.124558     -1.147250
  H      -2.639540     -0.846273     -2.130304
  H      -2.231092     -3.084450     -1.174024
  H       0.398410     -1.403262      1.734834
  H      -0.735383     -3.361760      0.767435
  Pd      1.346116      1.024950     -0.034490
  O       3.301928      1.367102     -0.791018
  O       2.268278     -0.536888     -0.933956
  O       0.827783      2.775385      0.763450
  C      -0.078262      2.885367      1.625241
  O      -0.860202      1.995982      2.008815
  H      -0.643738      0.952049      1.249790
  C       3.288642      0.173230     -1.161474
  H       4.154798     -0.268082     -1.672123
  H      -0.181517      3.881236      2.075202
21
Coordinates from ORCA-job reaction-0-ieip_optts_Compound_1 E -737.120694311550
  C      -1.340670      0.140823     -0.739197
  C      -1.968290     -0.962892     -1.289510
  C      -1.737884     -2.219716     -0.746061
  C      -0.896239     -2.375932      0.349743
  C      -0.463293      0.013458      0.352058
  C      -0.263915     -1.271803      0.887785
  H      -1.538311      1.123875     -1.151092
  H      -2.633437     -0.850237     -2.135263
  H      -2.222845     -3.086702     -1.176163
  H       0.395437     -1.397688      1.738084
  H      -0.732302     -3.359224      0.770037
  Pd      1.343870      1.026724     -0.034514
  O       3.302759      1.363057     -0.790568
  O       2.259696     -0.535765     -0.936869
  O       0.829093      2.776492      0.767812
  C      -0.076742      2.885755      1.629893
  O      -0.860670      1.996661      2.010707
  H      -0.645866      0.955623      1.249598
  C       3.283647      0.170016     -1.162734
  H       4.145070     -0.275531     -1.677652
  H      -0.178577      3.880518      2.082626
21
Coordinates from ORCA-job reaction-0-ieip_optts_Compound_1 E -737.120705877327
  C      -1.339576      0.140130     -0.739349
  C      -1.969517     -0.962668     -1.288776
  C      -1.741006     -2.219626     -0.744819
  C      -0.898644     -2.376813      0.350315
  C      -0.461929      0.011832      0.351594
  C      -0.264119     -1.273545      0.887594
  H      -1.536045      1.123396     -1.151291
  H      -2.635253     -0.849135     -2.133950
  H      -2.228186     -3.085894     -1.173876
  H       0.395303     -1.400183      1.737709
  H      -0.736315     -3.360212      0.770989
  Pd      1.346060      1.025626     -0.033155
  O       3.303685      1.365103     -0.787715
  O       2.265243     -0.536072     -0.934662
  O       0.829784      2.775454      0.767431
  C      -0.077313      2.885171      1.628171
  O      -0.861248      1.996247      2.008851
  H      -0.645035      0.953538      1.248385
  C       3.286409      0.172817     -1.162925
  H       4.148042     -0.268053     -1.681538
  H      -0.179815      3.880398      2.079736
21
Coordinates from ORCA-job reaction-0-ieip_optts_Compound_1 E -737.120698716373
  C      -1.339566      0.140769     -0.738885
  C      -1.967721     -0.962497     -1.289448
  C      -1.738285     -2.219471     -0.745929
  C      -0.897013     -2.376265      0.350092
  C      -0.462702      0.012826      0.352726
  C      -0.264203     -1.272554      0.888447
  H      -1.536492      1.123983     -1.150741
  H      -2.632565     -0.849354     -2.135375
  H      -2.223743     -3.086116     -1.176161
  H       0.394759     -1.398869      1.738976
  H      -0.733853     -3.359689      0.770376
  Pd      1.344985      1.025733     -0.032724
  O       3.303735      1.362911     -0.788566
  O       2.261796     -0.536521     -0.934539
  O       0.829134      2.775892      0.767942
  C      -0.077617      2.885873      1.628956
  O      -0.861611      1.997002      2.010000
  H      -0.645899      0.954982      1.249950
  C       3.284336      0.170536     -1.162827
  H       4.143104     -0.272759     -1.684092
  H      -0.180049      3.881096      2.080542
21
Coordinates from ORCA-job reaction-0-ieip_optts_Compound_1 E -737.120704868226
  C      -1.339051      0.140233     -0.739559
  C      -1.968160     -0.962814     -1.289463
  C      -1.739716     -2.219671     -0.745250
  C      -0.898335     -2.376524      0.350681
  C      -0.462255      0.012253      0.352102
  C      -0.264601     -1.273025      0.888403
  H      -1.535406      1.123398     -1.151799
  H      -2.633132     -0.849568     -2.135276
  H      -2.226135     -3.086137     -1.174767
  H       0.394193     -1.399407      1.739047
  H      -0.736018     -3.359841      0.771550
  Pd      1.346013      1.025428     -0.032040
  O       3.304382      1.363512     -0.786048
  O       2.264104     -0.536631     -0.933730
  O       0.829982      2.775512      0.768299
  C      -0.077402      2.885475      1.628692
  O      -0.861702      1.996704      2.009117
  H      -0.645620      0.954285      1.248824
  C       3.285232      0.171935     -1.163301
  H       4.144124     -0.268343     -1.686926
  H      -0.179966      3.880736      2.080165
21
Coordinates from ORCA-job reaction-0-ieip_optts_Compound_1 E -737.120702244877
  C      -1.338854      0.140486     -0.739336
  C      -1.967175     -0.962731     -1.289799
  C      -1.738439     -2.219601     -0.745742
  C      -0.897652     -2.376321      0.350664
  C      -0.462538      0.012621      0.352728
  C      -0.264683     -1.272655      0.888937
  H      -1.535309      1.123638     -1.151561
  H      -2.631654     -0.849622     -2.136018
  H      -2.224102     -3.086208     -1.175825
  H       0.393807     -1.398921      1.739836
  H      -0.735068     -3.359660      0.771373
  Pd      1.345610      1.025390     -0.031654
  O       3.304438      1.362719     -0.786819
  O       2.262553     -0.536653     -0.933725
  O       0.829915      2.775554      0.768957
  C      -0.077645      2.885840      1.629081
  O      -0.862328      1.997269      2.009327
  H      -0.646165      0.954925      1.249505
  C       3.284429      0.170988     -1.163152
  H       4.141473     -0.270639     -1.688659
  H      -0.180083      3.881092      2.080601
21
Coordinates from ORCA-job reaction-0-ieip_optts_Compound_1 E -737.120703593143
  C      -1.338662      0.140325     -0.739493
  C      -1.967380     -0.962766     -1.289761
  C      -1.739052     -2.219626     -0.745511
  C      -0.898226     -2.376443      0.350852
  C      -0.462362      0.012370      0.352568
  C      -0.264874     -1.272901      0.888935
  H      -1.534881      1.123485     -1.151814
  H      -2.631912     -0.849557     -2.135925
  H      -2.225096     -3.086132     -1.175369
  H       0.393563     -1.399255      1.739862
  H      -0.735976     -3.359766      0.771732
  Pd      1.346103      1.025118     -0.031228
  O       3.304720      1.362668     -0.785117
  O       2.263815     -0.537133     -0.932895
  O       0.830023      2.775448      0.768645
  C      -0.077599      2.885695      1.628734
  O      -0.862042      1.997038      2.009192
  H      -0.645916      0.954596      1.249250
  C       3.284704      0.171468     -1.163458
  H       4.141879     -0.268190     -1.690401
  H      -0.180300      3.881070      2.079922
21
Coordinates from ORCA-job reaction-0-ieip_optts_Compound_1 E -737.120703648507
  C      -1.338464      0.140334     -0.739631
  C      -1.966837     -0.962883     -1.290034
  C      -1.738486     -2.219682     -0.745647
  C      -0.898007     -2.376321      0.351006
  C      -0.462477      0.012548      0.352708
  C      -0.264983     -1.272659      0.889221
  H      -1.534660      1.123438     -1.152091
  H      -2.631085     -0.849827     -2.136442
  H      -2.224226     -3.086286     -1.175649
  H       0.393225     -1.398865      1.740347
  H      -0.735734     -3.359599      0.771980
  Pd      1.345955      1.025191     -0.031019
  O       3.304915      1.362438     -0.785522
  O       2.262947     -0.536821     -0.933197
  O       0.830317      2.775392      0.769473
  C      -0.077634      2.885815      1.629174
  O      -0.862636      1.997376      2.009037
  H      -0.646310      0.954936      1.249264
  C       3.284411      0.171168     -1.163344
  H       4.140405     -0.269274     -1.691553
  H      -0.180105      3.881090      2.080637
21
Coordinates from ORCA-job reaction-0-ieip_optts_Compound_1 E -737.120703035408
  C      -1.338381      0.140339     -0.739507
  C      -1.966867     -0.962784     -1.289978
  C      -1.738659     -2.219631     -0.745648
  C      -0.898211     -2.376402      0.351012
  C      -0.462430      0.012421      0.352839
  C      -0.265088     -1.272829      0.889301
  H      -1.534480      1.123485     -1.151919
  H      -2.631100     -0.849611     -2.136382
  H      -2.224486     -3.086166     -1.175693
  H       0.393089     -1.399150      1.740433
  H      -0.736046     -3.359717      0.771942
  Pd      1.346180      1.024920     -0.030696
  O       3.304887      1.362228     -0.784594
  O       2.263645     -0.537384     -0.932465
  O       0.830205      2.775361      0.769039
  C      -0.077677      2.885823      1.628817
  O      -0.862372      1.997307      2.009110
  H      -0.646148      0.954807      1.249424
  C       3.284395      0.171246     -1.163563
  H       4.140460     -0.267994     -1.692653
  H      -0.180386      3.881243      2.079902
21
Coordinates from ORCA-job reaction-0-ieip_optts_Compound_1 E -737.120703989589
  C      -1.338251      0.140268     -0.739759
  C      -1.966636     -0.962944     -1.290159
  C      -1.738490     -2.219711     -0.745617
  C      -0.898198     -2.376322      0.351184
  C      -0.462455      0.012512      0.352735
  C      -0.265164     -1.272664      0.889399
  H      -1.534307      1.123351     -1.152334
  H      -2.630745     -0.849907     -2.136678
  H      -2.224249     -3.086312     -1.175604
  H       0.392882     -1.398849      1.740655
  H      -0.736087     -3.359572      0.772286
  Pd      1.346159      1.025031     -0.030617
  O       3.305172      1.362197     -0.784670
  O       2.263205     -0.537018     -0.932819
  O       0.830504      2.775299      0.769684
  C      -0.077636      2.885814      1.629173
  O      -0.862754      1.997429      2.008923
  H      -0.646380      0.954951      1.249202
  C       3.284364      0.171229     -1.163483
  H       4.139773     -0.268399     -1.693313
  H      -0.180177      3.881127      2.080534
