! EnGrad PBEh-3c
%output 
xyzfile=True 
end 
%scf 
maxiter 250 
end
%output
Print[P_Hirshfeld] = 1
end
% maxcore
4000
*xyz 0 1
Lu   0.12695840  -0.45623838   0.33406847 
C    0.58799614   0.36228219   2.72049362 
C    1.77685784  -0.26805499   2.29152560 
C    2.33637680   0.51461418   1.26087045 
C    1.48447787   1.61212342   1.02959375 
C    0.41160521   1.52199614   1.94429689 
H    1.64913811   2.40577209   0.31415868 
H   -0.37973031   2.24688389   2.06835621 
H   -0.05951918   0.03359486   3.51899230 
H    2.19683866  -1.17399754   2.70675218 
H    3.26069074   0.30923844   0.74204719 
C    0.55895525  -0.17880233  -2.19680579 
C   -0.56913054  -1.02171284  -2.09932462 
C    1.22795935  -2.15450342  -1.27212096 
C    1.67141216  -0.88817023  -1.70389363 
H    0.57412045   0.80837035  -2.63627232 
C   -0.15886013  -2.23737126  -1.52789439 
H   -1.56716560  -0.79574006  -2.44349975 
H    2.69011554  -0.53213378  -1.67680103 
H    1.84351271  -2.94346421  -0.86277276 
H   -0.79339006  -3.09060389  -1.34080046 
C   -2.00038832  -1.21245329   1.07930384 
H   -2.38091099  -0.81307367   2.02354945 
H   -2.04812224  -2.30665982   1.17167167 
H   -2.74952212  -0.97584620   0.31348828 
C   -1.91823892   2.26624440  -1.16728205 
H   -2.11467552   1.35390440  -0.32546282 
H   -0.89725286   2.64109757  -1.20617136 
H   -2.57248206   3.09801476  -0.91458741 
H   -2.18763638   1.87471570  -2.14549657 
*
