! EnGrad PBEh-3c
%output 
xyzfile=True 
end 
%scf 
maxiter 250 
end
%output
Print[P_Hirshfeld] = 1
end
% maxcore
4000
*xyz 0 1
Lu   0.10443913  -0.45769662   0.34569522 
C    0.57283232   0.40727100   2.72131315 
C    1.74187063  -0.26423480   2.30015599 
C    2.32874183   0.48907037   1.26368383 
C    1.51794477   1.61403276   1.02737137 
C    0.43398855   1.56493134   1.93169871 
H    1.71831292   2.39826469   0.31046977 
H   -0.34885964   2.30440241   2.02281661 
H   -0.09721077   0.08881433   3.50443153 
H    2.14235665  -1.17517509   2.72333625 
H    3.24718443   0.25143376   0.74810646 
C    0.58526849  -0.17009435  -2.20277875 
C   -0.55665180  -0.99648534  -2.12193542 
C    1.20951134  -2.14504719  -1.25199813 
C    1.67617606  -0.88572160  -1.67826902 
H    0.63188919   0.81426998  -2.64888307 
C   -0.17256084  -2.21651911  -1.53798045 
H   -1.54828344  -0.74523879  -2.46826398 
H    2.69809930  -0.53832949  -1.63771191 
H    1.81764120  -2.93818417  -0.83946932 
H   -0.82170757  -3.05599159  -1.34402432 
C   -1.97741434  -1.23852727   1.08162577 
H   -2.35091778  -0.84849118   2.03451841 
H   -1.98371963  -2.33507329   1.18344773 
H   -2.76161998  -1.02910797   0.33893735 
C   -1.95942958   2.23326030  -1.12560551 
H   -2.11701950   1.43956215  -0.36154707 
H   -0.93444641   2.52032854  -1.11343698 
H   -2.58752973   3.05397653  -0.86490317 
H   -2.23588689   1.84041100  -2.07635973 
*
