! EnGrad PBEh-3c
%output 
xyzfile=True 
end 
%scf 
maxiter 250 
end
%output
Print[P_Hirshfeld] = 1
end
% maxcore
4000
*xyz 0 1
Lu   0.10772922  -0.45294464   0.33654388 
C    0.58533023   0.37494916   2.71858546 
C    1.76763523  -0.26615857   2.29158090 
C    2.33710070   0.50849007   1.25934420 
C    1.49475438   1.61356330   1.03052778 
C    0.41779834   1.53409105   1.93959741 
H    1.66482950   2.40498120   0.31090036 
H   -0.36659972   2.26479459   2.06146032 
H   -0.06644509   0.04973304   3.51423317 
H    2.18229675  -1.17455022   2.70822063 
H    3.26160147   0.29899375   0.74618225 
C    0.56703343  -0.17760256  -2.20336973 
C   -0.56530212  -1.01599258  -2.10671625 
C    1.22229710  -2.15251487  -1.27049917 
C    1.67704385  -0.88738475  -1.70119950 
H    0.58808347   0.80991839  -2.64191816 
C   -0.16126405  -2.23257172  -1.53298309 
H   -1.56026181  -0.78561847  -2.45667841 
H    2.69450121  -0.53654921  -1.67320197 
H    1.83657786  -2.94253841  -0.85788199 
H   -0.79854127  -3.08160201  -1.34656856 
C   -1.98708379  -1.22193286   1.07928397 
H   -2.38044332  -0.82548515   2.02870693 
H   -2.04218044  -2.31690887   1.17554506 
H   -2.75320170  -0.98963173   0.31804122 
C   -1.94721891   2.17881502  -1.08572247 
H   -2.10763949   1.43236909  -0.39004595 
H   -0.89911975   2.62805480  -1.19763233 
H   -2.57414465   3.09186007  -0.90424321 
H   -2.19711103   1.86935098  -2.13414758 
*
