! EnGrad PBEh-3c
%output 
xyzfile=True 
end 
%scf 
maxiter 250 
end
%output
Print[P_Hirshfeld] = 1
end
% maxcore
4000
*xyz 0 1
Lu   0.08567288  -0.45253777   0.34153130 
C    0.58227337   0.39193502   2.71847691 
C    1.75636168  -0.26541475   2.29113516 
C    2.33429610   0.50043280   1.25823837 
C    1.50971997   1.61738419   1.03032172 
C    0.42696922   1.54960666   1.93491775 
H    1.68531791   2.40220163   0.30870360 
H   -0.35311121   2.28797632   2.05060293 
H   -0.07654889   0.06906735   3.50817262 
H    2.16392740  -1.17424311   2.71043028 
H    3.26290332   0.28449545   0.75011100 
C    0.57838696  -0.17661831  -2.21146198 
C   -0.56003968  -1.00794503  -2.11757819 
C    1.21822166  -2.14908768  -1.26570868 
C    1.67841260  -0.88751871  -1.69610602 
H    0.60661887   0.81157748  -2.64833781 
C   -0.16480525  -2.22579943  -1.53999130 
H   -1.55251172  -0.77120414  -2.47124580 
H    2.70149103  -0.54070228  -1.66709649 
H    1.82727222  -2.94019827  -0.85235378 
H   -0.80679458  -3.07164753  -1.35173415 
C   -1.98017073  -1.23177062   1.08130987 
H   -2.37449867  -0.84287465   2.02801802 
H   -2.03054388  -2.32686160   1.17996917 
H   -2.75332524  -1.00812451   0.32859571 
C   -1.94213707   2.23267618  -1.13258038 
H   -2.11254149   1.44160799  -0.38358951 
H   -0.93927696   2.57457077  -1.16312605 
H   -2.56852244   3.05150240  -0.88277582 
H   -2.20869011   1.85602088  -2.08691787 
*
