! EnGrad PBEh-3c
%output 
xyzfile=True 
end 
%scf 
maxiter 250 
end
%output
Print[P_Hirshfeld] = 1
end
% maxcore
4000
*xyz 0 1
Lu   0.08864313  -0.45347101   0.34158683 
C    0.58219147   0.39290912   2.71918184 
C    1.75525497  -0.26574581   2.29100757 
C    2.33384872   0.49975875   1.25801880 
C    1.50996992   1.61720144   1.03006189 
C    0.42784740   1.55121504   1.93539921 
H    1.68753407   2.40204162   0.30884382 
H   -0.35352661   2.28919615   2.04859411 
H   -0.07816986   0.06976130   3.50819258 
H    2.16296352  -1.17424571   2.71115134 
H    3.26177706   0.28257993   0.75000822 
C    0.57853539  -0.17608650  -2.21097726 
C   -0.55964352  -1.00727268  -2.11893601 
C    1.21777382  -2.14831113  -1.26409827 
C    1.67840642  -0.88720531  -1.69478923 
H    0.60840286   0.81157975  -2.64843715 
C   -0.16525879  -2.22530213  -1.54003952 
H   -1.55256109  -0.76938431  -2.47087732 
H    2.70078264  -0.54063374  -1.66550256 
H    1.82698229  -2.94005795  -0.85188438 
H   -0.80804437  -3.07139471  -1.35094437 
C   -1.98451124  -1.23324099   1.08212667 
H   -2.37202170  -0.84346011   2.02674491 
H   -2.02701485  -2.32622321   1.17994286 
H   -2.75230737  -1.00927474   0.33030703 
C   -1.94431126   2.23710980  -1.13655223 
H   -2.11066471   1.43756045  -0.37736069 
H   -0.92517911   2.57028999  -1.15543964 
H   -2.57950840   3.05987948  -0.87604290 
H   -2.21498522   1.84757001  -2.09757369 
*
