! EnGrad PBEh-3c
%output 
xyzfile=True 
end 
%scf 
maxiter 250 
end
%output
Print[P_Hirshfeld] = 1
end
% maxcore
4000
*xyz 0 1
Lu   0.08871427  -0.45390379   0.34234570 
C    0.57988210   0.40044240   2.71971414 
C    1.74954343  -0.26569630   2.29102534 
C    2.33221876   0.49574324   1.25795566 
C    1.51476406   1.61747623   1.02895218 
C    0.43195388   1.55906220   1.93485818 
H    1.69925214   2.40127523   0.30797085 
H   -0.34871604   2.29911556   2.04100684 
H   -0.08451148   0.07831343   3.50611679 
H    2.15451975  -1.17454060   2.71358741 
H    3.25972735   0.27350386   0.75103589 
C    0.58309054  -0.17444457  -2.21162428 
C   -0.55742586  -1.00388341  -2.12428904 
C    1.21467854  -2.14609981  -1.25989815 
C    1.67843223  -0.88641224  -1.69082196 
H    0.61820465   0.81256929  -2.65109663 
C   -0.16781792  -2.22209337  -1.54189248 
H   -1.54971273  -0.76096648  -2.47535238 
H    2.70187512  -0.54184141  -1.65984384 
H    1.82326228  -2.93929663  -0.84854512 
H   -0.81261241  -3.06632032  -1.35159149 
C   -1.98361325  -1.23960220   1.08286894 
H   -2.36759917  -0.84845513   2.02958179 
H   -2.01640708  -2.33167660   1.18173922 
H   -2.75470051  -1.01702093   0.33343855 
C   -1.95554009   2.20715925  -1.10711303 
H   -2.10429294   1.46502211  -0.39461192 
H   -0.90943039   2.55348021  -1.13721143 
H   -2.59817693   3.07083935  -0.86139827 
H   -2.22998562   1.83261830  -2.10860307 
*
