! EnGrad PBEh-3c
%output 
xyzfile=True 
end 
%scf 
maxiter 250 
end
%output
Print[P_Hirshfeld] = 1
end
% maxcore
4000
*xyz 0 1
Lu   0.09264828  -0.45484261   0.34239938 
C    0.57956482   0.40069411   2.72008641 
C    1.74838758  -0.26574735   2.29191210 
C    2.33245046   0.49518803   1.25784325 
C    1.51393622   1.61677554   1.02901614 
C    0.43232201   1.55985911   1.93519571 
H    1.70118404   2.40136156   0.30811861 
H   -0.34937304   2.29919186   2.03902715 
H   -0.08584843   0.07863266   3.50626107 
H    2.15399196  -1.17468771   2.71453175 
H    3.25785865   0.27152225   0.75070897 
C    0.58206338  -0.17336058  -2.21068713 
C   -0.55738675  -1.00372017  -2.12439384 
C    1.21336885  -2.14614621  -1.25856742 
C    1.67982749  -0.88591272  -1.68918742 
H    0.61954335   0.81251300  -2.65076390 
C   -0.16807470  -2.22168007  -1.54131166 
H   -1.54990776  -0.75936655  -2.47411661 
H    2.70025491  -0.54154608  -1.65769976 
H    1.82326784  -2.93920558  -0.84787032 
H   -0.81345164  -3.06572822  -1.35045498 
C   -1.98376298  -1.23949644   1.08268428 
H   -2.36598275  -0.84745981   2.03070283 
H   -2.01275520  -2.33259583   1.18179281 
H   -2.75597188  -1.01735494   0.33314494 
C   -1.96084676   2.21614046  -1.11703137 
H   -2.10434862   1.45580986  -0.38404047 
H   -0.90105549   2.55075803  -1.13228358 
H   -2.60151661   3.07297961  -0.85953039 
H   -2.23239013   1.83020820  -2.11065513 
*
