! EnGrad PBEh-3c
%output 
xyzfile=True 
end 
%scf 
maxiter 250 
end
%output
Print[P_Hirshfeld] = 1
end
% maxcore
4000
*xyz 0 1
Lu   0.09638769  -0.45575352   0.34270363 
C    0.57824062   0.40282733   2.72059221 
C    1.74641104  -0.26576613   2.29285937 
C    2.33126763   0.49369914   1.25859088 
C    1.51494367   1.61648772   1.02821790 
C    0.43347945   1.56213695   1.93518476 
H    1.70586945   2.40087156   0.30838756 
H   -0.34879811   2.30162646   2.03514226 
H   -0.08865802   0.08125424   3.50573961 
H    2.15111343  -1.17479175   2.71614825 
H    3.25584117   0.26703309   0.75031233 
C    0.58305465  -0.17252818  -2.20941807 
C   -0.55687948  -1.00231934  -2.12547506 
C    1.21234403  -2.14547266  -1.25640584 
C    1.67878159  -0.88581355  -1.68671818 
H    0.62316983   0.81296583  -2.65109677 
C   -0.16923658  -2.22041222  -1.54114057 
H   -1.54929772  -0.75573161  -2.47385887 
H    2.70001186  -0.54115864  -1.65385446 
H    1.82199871  -2.93881762  -0.84628101 
H   -0.81543985  -3.06366299  -1.34945047 
C   -1.98358052  -1.24028308   1.08276949 
H   -2.36296567  -0.84799347   2.03205024 
H   -2.00634792  -2.33471743   1.18229098 
H   -2.75759198  -1.01993901   0.33401336 
C   -1.96178624   2.22940327  -1.12876738 
H   -2.10539806   1.44647305  -0.37174855 
H   -0.89941198   2.54152620  -1.12356252 
H   -2.60524130   3.07260520  -0.85590396 
H   -2.23692153   1.82657610  -2.10921916 
*
