! EnGrad PBEh-3c
%output 
xyzfile=True 
end 
%scf 
maxiter 250 
end
%output
Print[P_Hirshfeld] = 1
end
% maxcore
4000
*xyz 0 1
Lu   0.17735442   0.26348384  -0.15576814 
C    0.34712267   0.98858690   2.39025538 
C    1.32032650  -0.01786555   2.18910631 
C    2.27963425   0.45492647   1.27247715 
C    1.93545855   1.78536575   0.95594322 
C    0.70632053   2.08416811   1.58695873 
H    2.47996914   2.44136432   0.29206057 
H    0.20175568   3.03842647   1.59631844 
H   -0.47348668   0.96135565   3.09155404 
H    1.35246667  -0.96927802   2.70079948 
H    3.16604125  -0.07048775   0.95135412 
C    1.02419204  -0.06661410  -2.58283477 
C   -0.29254422  -0.57380193  -2.56912457 
C    1.00815378  -1.92834477  -1.28373694 
C    1.82188159  -0.88083247  -1.75548157 
H    1.35087694   0.82204848  -3.10381729 
C   -0.28161809  -1.77688685  -1.84619869 
H   -1.11680537  -0.23546292  -3.17746770 
H    2.87643032  -0.75630054  -1.56174403 
H    1.34191211  -2.76111429  -0.68037379 
H   -1.11705500  -2.45849438  -1.76306652 
C   -2.47307786  -1.61407656   1.36877251 
H   -2.55123941  -1.39446776   2.42782966 
H   -3.00575342  -2.51379539   1.07035828 
H   -2.66286984  -0.77368049   0.72554884 
C   -1.88194275   1.72601494  -0.69646393 
H   -1.03168426  -1.77151342   1.12673153 
H   -1.44971523   2.52761999  -1.30852251 
H   -2.44640059   2.24747695   0.08228644 
H   -2.60571372   1.22218252  -1.34375417 
*
