! EnGrad PBEh-3c
%output 
xyzfile=True 
end 
%scf 
maxiter 250 
end
%output
Print[P_Hirshfeld] = 1
end
% maxcore
4000
*xyz 0 1
Lu   0.10511147   0.32075773  -0.18824682 
C    0.32997230   0.97414158   2.35585195 
C    1.29211104  -0.03918121   2.13693375 
C    2.25836765   0.46135956   1.24735159 
C    1.89787989   1.77591504   0.90706039 
C    0.70102046   2.09641115   1.59289232 
H    2.46463881   2.44123373   0.26638352 
H    0.19098983   3.04437649   1.56934364 
H   -0.49899206   0.91575592   3.04518499 
H    1.33741892  -0.99282546   2.63881742 
H    3.15224560  -0.05992882   0.93246104 
C    1.00695482  -0.03073460  -2.55140904 
C   -0.29479855  -0.57703124  -2.58863675 
C    1.00036459  -1.89372124  -1.24941555 
C    1.80325246  -0.84605423  -1.72924108 
H    1.34580080   0.84406429  -3.09611809 
C   -0.29274530  -1.73640964  -1.79295680 
H   -1.12419240  -0.19909397  -3.16345289 
H    2.86213967  -0.72473285  -1.53736037 
H    1.34216827  -2.73289057  -0.66213341 
H   -1.11476595  -2.42967653  -1.66499157 
C   -2.38747752  -1.58944272   1.34466399 
H   -2.50732139  -1.36622762   2.37835520 
H   -2.88210144  -2.49186156   1.06290878 
H   -2.72632833  -0.77713438   0.75093253 
C   -1.77265467   1.67846589  -0.71288560 
H   -1.28670204  -1.78144738   1.16472451 
H   -1.41903060   2.52834097  -1.33052330 
H   -2.30440579   2.13455043   0.13928283 
H   -2.53351209   1.17410059  -1.33355344 
*
