! EnGrad PBEh-3c
%output 
xyzfile=True 
end 
%scf 
maxiter 250 
end
%output
Print[P_Hirshfeld] = 1
end
% maxcore
4000
*xyz 0 1
Lu   0.12487524   0.29851478  -0.16928607 
C    0.36341006   0.97860244   2.38328012 
C    1.31247559  -0.02885225   2.19176409 
C    2.28662510   0.46493758   1.28727900 
C    1.91669350   1.77891354   0.93297737 
C    0.71766092   2.09837906   1.60778351 
H    2.47603818   2.44240418   0.28895840 
H    0.19815637   3.03512067   1.59098239 
H   -0.47365728   0.95406201   3.09059597 
H    1.35399384  -0.97442142   2.69549468 
H    3.16823678  -0.06874342   0.95067601 
C    1.02025576  -0.04803586  -2.56485926 
C   -0.28846676  -0.59367137  -2.59827032 
C    1.00531223  -1.94521062  -1.28246155 
C    1.82059292  -0.87934302  -1.76284561 
H    1.34815086   0.82409744  -3.10168394 
C   -0.27516733  -1.76600946  -1.82497433 
H   -1.11891159  -0.23015562  -3.17108578 
H    2.87678390  -0.75456575  -1.56223218 
H    1.34374150  -2.76060042  -0.67810894 
H   -1.11355956  -2.45930841  -1.75311623 
C   -2.30750078  -1.62435308   1.34075719 
H   -2.54935450  -1.39245122   2.42292006 
H   -2.98680105  -2.51627934   1.07303688 
H   -2.70233518  -0.76256014   0.72044805 
C   -1.83839292   1.70086728  -0.69104911 
H   -1.19460844  -1.75631223   1.15168499 
H   -1.44501172   2.52859248  -1.31241247 
H   -2.44084941   2.24064515   0.08600222 
H   -2.60333654   1.22312136  -1.34524248 
*
