! EnGrad PBEh-3c
%output 
xyzfile=True 
end 
%scf 
maxiter 250 
end
%output
Print[P_Hirshfeld] = 1
end
% maxcore
4000
*xyz 0 1
Lu   0.05395673   0.34825964  -0.18854315 
C    0.35820120   0.97869794   2.38992472 
C    1.32027061  -0.03901697   2.18012140 
C    2.29077090   0.47085254   1.30424854 
C    1.89686165   1.77197143   0.90531681 
C    0.73586825   2.10338003   1.63253249 
H    2.47138373   2.44368882   0.28457427 
H    0.18999211   3.03682668   1.58378712 
H   -0.46376970   0.94329239   3.08035519 
H    1.35645705  -0.98745592   2.69262830 
H    3.16824774  -0.06378289   0.95082885 
C    1.00701471  -0.03153307  -2.54424855 
C   -0.27059234  -0.61615506  -2.62637271 
C    1.01603011  -1.94197706  -1.28884313 
C    1.81566738  -0.88682378  -1.76089766 
H    1.34630604   0.83110575  -3.10114415 
C   -0.28600499  -1.76120976  -1.80423784 
H   -1.12623904  -0.22135823  -3.16519025 
H    2.87494998  -0.75159922  -1.56323860 
H    1.34899171  -2.76812918  -0.67070155 
H   -1.10259737  -2.45585920  -1.73912812 
C   -2.17748763  -1.62656108   1.31041813 
H   -2.52992943  -1.39495811   2.38644406 
H   -2.92519013  -2.49292478   1.08261979 
H   -2.73554688  -0.77338505   0.73334699 
C   -1.79742759   1.67579134  -0.68357801 
H   -1.40031541  -1.74413908   1.18469323 
H   -1.43920253   2.52563977  -1.31551433 
H   -2.42035095   2.22016664   0.08140559 
H   -2.58870354   1.22672717  -1.34004909 
*
