! EnGrad PBEh-3c
%output 
xyzfile=True 
end 
%scf 
maxiter 250 
end
%output
Print[P_Hirshfeld] = 1
end
% maxcore
4000
*xyz 0 1
Lu   0.04821039   0.35308745  -0.19036328 
C    0.35631082   0.98111451   2.38741120 
C    1.31864714  -0.03727741   2.17653462 
C    2.28997905   0.46858072   1.29959991 
C    1.89860362   1.76972696   0.90527356 
C    0.73217554   2.10340272   1.63239484 
H    2.47165084   2.44329069   0.28328266 
H    0.19054596   3.03753384   1.58205739 
H   -0.46727481   0.94211761   3.07686348 
H    1.35374835  -0.98990349   2.69152104 
H    3.16505890  -0.06250434   0.95264787 
C    1.00772740  -0.03212688  -2.54500001 
C   -0.27422601  -0.61432157  -2.62605601 
C    1.01741838  -1.93847274  -1.28624913 
C    1.81675244  -0.88586117  -1.75661313 
H    1.34729734   0.83212032  -3.10100342 
C   -0.28752107  -1.75713311  -1.80547984 
H   -1.12441418  -0.21976002  -3.16489824 
H    2.87178566  -0.75210015  -1.56297754 
H    1.34754630  -2.76741643  -0.67002590 
H   -1.10518993  -2.45390364  -1.73357768 
C   -2.35926627  -1.60065489   1.33934166 
H   -2.51099457  -1.39874194   2.36495216 
H   -2.89447557  -2.47605793   1.08261052 
H   -2.71365058  -0.78865729   0.74310469 
C   -1.80475591   1.68073195  -0.68556176 
H   -1.27790806  -1.77183338   1.16842311 
H   -1.43933588   2.52122265  -1.31362319 
H   -2.40831023   2.20996731   0.07899378 
H   -2.58000523   1.22680485  -1.33395410 
*
