! EnGrad PBEh-3c
%output 
xyzfile=True 
end 
%scf 
maxiter 250 
end
%output
Print[P_Hirshfeld] = 1
end
% maxcore
4000
*xyz 0 1
Lu   0.05084459   0.35342338  -0.19065691 
C    0.35529074   0.98243300   2.38481400 
C    1.31671917  -0.03624776   2.17441607 
C    2.28535646   0.46584425   1.29026359 
C    1.90163039   1.76969976   0.90884551 
C    0.72718576   2.10197126   1.62696662 
H    2.47111908   2.44243390   0.28175335 
H    0.19121383   3.03835338   1.58120287 
H   -0.47219088   0.93994729   3.07494416 
H    1.35156288  -0.99051293   2.68803950 
H    3.16331156  -0.06154346   0.95354720 
C    1.00964590  -0.03508423  -2.54837998 
C   -0.27858147  -0.60859645  -2.61969524 
C    1.01588547  -1.93419544  -1.28164763 
C    1.81599869  -0.88086264  -1.75158689 
H    1.34766899   0.83269824  -3.10004268 
C   -0.28670591  -1.75529845  -1.80894555 
H   -1.12318682  -0.21852376  -3.16556606 
H    2.86965955  -0.75184920  -1.56198558 
H    1.34632680  -2.76515391  -0.67003703 
H   -1.10802247  -2.45244411  -1.72656929 
C   -2.37360928  -1.59408760   1.33888425 
H   -2.50502983  -1.39361695   2.37603947 
H   -2.88833646  -2.48716080   1.07533594 
H   -2.71160432  -0.78079133   0.73866155 
C   -1.81412332   1.68875071  -0.69069463 
H   -1.27011345  -1.78149465   1.16953252 
H   -1.43795921   2.51648363  -1.31172423 
H   -2.39506471   2.19946188   0.07987255 
H   -2.57078894   1.22461980  -1.32920285 
*
