! EnGrad PBEh-3c
%output 
xyzfile=True 
end 
%scf 
maxiter 250 
end
%output
Print[P_Hirshfeld] = 1
end
% maxcore
4000
*xyz 0 1
Lu   0.05564969   0.35590850  -0.19318771 
C    0.35748295   0.97841091   2.37610456 
C    1.30672081  -0.03699181   2.16949704 
C    2.27209042   0.46083051   1.26812351 
C    1.90188542   1.77327001   0.91120599 
C    0.71717662   2.10050908   1.61467632 
H    2.46768812   2.44022699   0.27639515 
H    0.19164894   3.03944875   1.57737213 
H   -0.48353880   0.92982878   3.07011224 
H    1.34926938  -0.99080326   2.67263234 
H    3.16210999  -0.05937270   0.95125905 
C    1.01215489  -0.03462163  -2.55339734 
C   -0.28794651  -0.59658530  -2.60674244 
C    1.00603340  -1.92696378  -1.26742129 
C    1.81227130  -0.86319845  -1.74015312 
H    1.34648830   0.83436823  -3.09600103 
C   -0.28141216  -1.75213531  -1.80912961 
H   -1.12243173  -0.21265648  -3.16502284 
H    2.86641007  -0.74683735  -1.55681714 
H    1.34529182  -2.75536889  -0.67085858 
H   -1.11078980  -2.44842433  -1.70362384 
C   -2.33398792  -1.58911379   1.33246542 
H   -2.49905646  -1.37596002   2.40378067 
H   -2.87815941  -2.51932194   1.05883008 
H   -2.73334226  -0.75158826   0.72445938 
C   -1.80280968   1.68986401  -0.70160489 
H   -1.31257247  -1.79091942   1.17578702 
H   -1.42731812   2.51677193  -1.31734770 
H   -2.36571134   2.17718351   0.10171947 
H   -2.55720568   1.20779656  -1.33070360 
*
