! EnGrad PBEh-3c
%output 
xyzfile=True 
end 
%scf 
maxiter 250 
end
%output
Print[P_Hirshfeld] = 1
end
% maxcore
4000
*xyz 0 1
Lu   0.06635178   0.35054888  -0.19252074 
C    0.35084713   0.97845287   2.37436140 
C    1.30443570  -0.03648508   2.16299388 
C    2.26588610   0.45828655   1.25914163 
C    1.90275627   1.77448904   0.91304505 
C    0.71216199   2.09835248   1.60729409 
H    2.46686600   2.43965124   0.27376157 
H    0.19188341   3.04078791   1.57596524 
H   -0.48714389   0.92613059   3.06526403 
H    1.34698316  -0.99126641   2.66568595 
H    3.16065647  -0.05892518   0.94909811 
C    1.01183784  -0.03632179  -2.55524498 
C   -0.29044472  -0.58957551  -2.59885242 
C    1.00401255  -1.91779712  -1.26235130 
C    1.80912667  -0.85782892  -1.73464925 
H    1.34675233   0.83632438  -3.09535677 
C   -0.28397059  -1.75163390  -1.80910861 
H   -1.12260828  -0.20990779  -3.16567669 
H    2.86552681  -0.74356533  -1.55344328 
H    1.34451805  -2.75135178  -0.66987643 
H   -1.11161796  -2.44461068  -1.69377153 
C   -2.36458367  -1.58331367   1.33783192 
H   -2.49601162  -1.37054713   2.40673154 
H   -2.87351459  -2.52269476   1.05457894 
H   -2.73320982  -0.74814189   0.72398300 
C   -1.79942038   1.68968345  -0.70482056 
H   -1.29130571  -1.79905105   1.17223704 
H   -1.42295765   2.51965492  -1.32132255 
H   -2.35230117   2.16776038   0.11236419 
H   -2.55238476   1.19906011  -1.33228899 
*
