! EnGrad PBEh-3c
%output 
xyzfile=True 
end 
%scf 
maxiter 250 
end
%output
Print[P_Hirshfeld] = 1
end
% maxcore
4000
*xyz 1 1
Ir   0.49476969  -0.75852666   0.75909089 
C   -0.07336391  -2.79914691   1.40492599 
C    0.49309881  -2.09461613   2.51486946 
C    2.04656044  -2.17419421   0.79867773 
C    0.87305268  -2.84981644   0.35998723 
C    1.81206651  -1.79308644   2.15152160 
N   -1.03500796  -0.03507354  -0.43928866 
C   -2.44153227  -0.02131438   0.00837470 
C   -2.88160665   1.33007953   0.53659885 
H   -3.91062843   1.32227166   0.89693469 
H   -2.79219731   2.10238147  -0.22777600 
H   -2.31426222   1.62065066   1.41476344 
C   -3.46473864  -0.50998705  -1.00355196 
H   -2.49036066  -0.70924869   0.85240918 
H   -4.43726970  -0.64754351  -0.53701602 
H   -3.62285493   0.19257337  -1.82445300 
H   -3.17493220  -1.47410176  -1.42499001 
C   -0.77747149   0.25376150  -1.66020549 
C    0.51060038   0.23325174  -2.27657501 
H   -1.58248585   0.54534919  -2.32955853 
C    1.69006597  -0.07265032  -1.65637701 
C    2.79941028  -0.06859998  -2.52734663 
S    0.74138297   0.20667737  -3.98221073 
C    2.41374459   0.01169890  -3.83474058 
H    2.24933335   1.16065226  -0.81031894 
H    3.84713538  -0.11497017  -2.26408920 
H    3.04133878  -0.08307699  -4.70788781 
H   -0.88949007  -3.49664789   1.49679314 
H    0.04234315  -2.00995788   3.48688930 
H    2.57186902  -1.41379745   2.81009610 
O    1.89663653   1.91250187   0.55672235 
O    0.24837960   1.12856916   1.68523660 
C    0.94206553   2.10283457   1.37265688 
C    0.85309602   3.43500837   2.01704451 
H    0.85829910   4.21211868   1.25422019 
H    1.71442699   3.61439196   2.66170739 
H   -0.04920314   3.50496024   2.61599960 
H    3.02003395  -2.28981526   0.36058989 
H    0.77769581  -3.47354093  -0.50971912 
*
