! EnGrad PBEh-3c
%output 
xyzfile=True 
end 
%scf 
maxiter 250 
end
%output
Print[P_Hirshfeld] = 1
end
% maxcore
4000
*xyz 1 1
Ir   0.51770179  -0.73104287   0.74855925 
C   -0.05893342  -2.81449472   1.41351443 
C    0.47679116  -2.11166516   2.48695526 
C    2.04634600  -2.22004902   0.85029795 
C    0.87128362  -2.86118977   0.35310634 
C    1.85599869  -1.77305977   2.15181109 
N   -1.03882852  -0.05376314  -0.45796346 
C   -2.47278364  -0.02453171   0.03546743 
C   -2.87073918   1.34593879   0.55424353 
H   -3.91347637   1.31059588   0.88764263 
H   -2.79203456   2.10407232  -0.22185071 
H   -2.30173354   1.62209919   1.41529404 
C   -3.45414112  -0.51949984  -1.02657053 
H   -2.48507149  -0.71532145   0.85029932 
H   -4.43565120  -0.64474985  -0.52991864 
H   -3.62312200   0.19468781  -1.82287942 
H   -3.17813542  -1.47218014  -1.43069898 
C   -0.79241342   0.27193964  -1.68667212 
C    0.50969435   0.19764564  -2.29423293 
H   -1.59211388   0.54512079  -2.32409378 
C    1.75181983   0.04201108  -1.53331934 
C    2.79955221  -0.09498302  -2.54094324 
S    0.72188453   0.21370751  -3.99651769 
C    2.40983739   0.00806319  -3.84435853 
H    2.16541128   1.08769418  -0.77979741 
H    3.84163160  -0.12307128  -2.25313966 
H    3.04022203  -0.07430550  -4.70940791 
H   -0.91773869  -3.47511858   1.47832815 
H    0.03132409  -1.99799694   3.48818834 
H    2.56818457  -1.39602372   2.81728746 
O    1.90682505   1.95712677   0.53567225 
O    0.16695699   1.06948973   1.71995977 
C    1.08386449   2.07861353   1.28580149 
C    0.82802340   3.44326326   2.02488831 
H    0.85753203   4.21283143   1.25420339 
H    1.71612827   3.60968162   2.65707062 
H   -0.04966491   3.51295842   2.61805548 
H    3.02778333  -2.26008432   0.35028427 
H    0.78210076  -3.46533206  -0.52442396 
*
