! EnGrad PBEh-3c
%output 
xyzfile=True 
end 
%scf 
maxiter 250 
end
%output
Print[P_Hirshfeld] = 1
end
% maxcore
4000
*xyz 1 1
Ir   0.51478006  -0.73501875   0.75173454 
C   -0.06323128  -2.81887219   1.40791933 
C    0.48592464  -2.10390791   2.49654968 
C    2.05497531  -2.22110018   0.83911648 
C    0.87297219  -2.86031316   0.35644649 
C    1.84012111  -1.77698586   2.15274458 
N   -1.03927959  -0.05201969  -0.46017083 
C   -2.46724736  -0.02184005   0.02813786 
C   -2.87441176   1.34328637   0.55169787 
H   -3.91271520   1.31151358   0.88728046 
H   -2.79178222   2.10449064  -0.22240230 
H   -2.29987229   1.62377324   1.41714417 
C   -3.45861741  -0.51680699  -1.01944892 
H   -2.48544305  -0.71733715   0.85354710 
H   -4.43318376  -0.64492634  -0.53195297 
H   -3.62277408   0.19513319  -1.82421619 
H   -3.17672192  -1.47533672  -1.43196587 
C   -0.78850397   0.26765458  -1.67989953 
C    0.51780043   0.20063087  -2.28330344 
H   -1.59618546   0.54706535  -2.32737709 
C    1.74479577   0.04879161  -1.55135341 
C    2.79817346  -0.09203423  -2.53435483 
S    0.72380093   0.21114717  -3.99199686 
C    2.40877553   0.00653482  -3.84088036 
H    2.16268506   1.07695338  -0.78613299 
H    3.84231297  -0.12308499  -2.25473664 
H    3.04067694  -0.07444603  -4.71051481 
H   -0.91792115  -3.47269205   1.47860059 
H    0.03307259  -1.99801737   3.48383397 
H    2.57356595  -1.39332931   2.82039917 
O    1.94479147   1.94909234   0.50320788 
O    0.19040395   1.08371381   1.70619223 
C    1.01799351   2.08203985   1.34030830 
C    0.83929868   3.43628661   2.01856030 
H    0.85677242   4.21336643   1.25488662 
H    1.71385935   3.61020990   2.65694730 
H   -0.05376424   3.51141031   2.61985911 
H    3.02305218  -2.26011721   0.35144648 
H    0.78138799  -3.46579112  -0.52557542 
*
