! EnGrad PBEh-3c
%output 
xyzfile=True 
end 
%scf 
maxiter 250 
end
%output
Print[P_Hirshfeld] = 1
end
% maxcore
4000
*xyz 1 1
Ir   0.52091688  -0.75888343   0.77040832 
C   -0.05351482  -2.84651553   1.39527224 
C    0.50156786  -2.08872386   2.49445352 
C    2.09425672  -2.28163825   0.86361097 
C    0.90274817  -2.88895428   0.36068046 
C    1.83332136  -1.76899851   2.17235370 
N   -1.05480677  -0.07114188  -0.48519611 
C   -2.45833335  -0.02512793   0.02047627 
C   -2.86906226   1.34278657   0.56511742 
H   -3.91386557   1.29700295   0.87533374 
H   -2.78775344   2.11137019  -0.20694273 
H   -2.26516350   1.63517564   1.43082247 
C   -3.46541475  -0.51477057  -1.01443517 
H   -2.47993420  -0.73776567   0.86205322 
H   -4.42360693  -0.64275814  -0.53219189 
H   -3.62166325   0.20305368  -1.82727772 
H   -3.17657611  -1.48258872  -1.45098610 
C   -0.78424304   0.26398985  -1.68736012 
C    0.56258504   0.20565801  -2.20665197 
H   -1.62815528   0.55961917  -2.34162635 
C    1.76370977   0.25025129  -1.61971567 
C    2.79500054  -0.07642116  -2.49673956 
S    0.71592057   0.18087990  -3.94085466 
C    2.40123260  -0.02829349  -3.81140910 
H    1.98176787   0.85812001  -0.73676913 
H    3.83855941  -0.14201006  -2.24761400 
H    3.03252623  -0.06123443  -4.70446099 
H   -0.98275716  -3.40535248   1.43123991 
H    0.01638283  -1.96772171   3.44484292 
H    2.58096744  -1.34001054   2.84561885 
O    1.94161245   1.99177969   0.51439339 
O    0.27496685   1.10469916   1.63414279 
C    1.04812071   2.06438800   1.32717861 
C    0.84877311   3.39145674   2.00259176 
H    0.85061908   4.20239947   1.25932419 
H    1.70333791   3.60394112   2.64498933 
H   -0.05878646   3.50583319   2.61735891 
H    3.02149893  -2.20058795   0.34023021 
H    0.79536933  -3.44478690  -0.56095158 
*
