! EnGrad PBEh-3c
%output 
xyzfile=True 
end 
%scf 
maxiter 250 
end
%output
Print[P_Hirshfeld] = 1
end
% maxcore
4000
*xyz 1 1
Ir   0.51733969  -0.76904937   0.78407676 
C   -0.05029242  -2.85182249   1.39122000 
C    0.50210824  -2.08802489   2.48739930 
C    2.10285025  -2.29505064   0.87665304 
C    0.91177185  -2.90309773   0.36337435 
C    1.84548777  -1.76708318   2.17637005 
N   -1.05746980  -0.07942183  -0.48914694 
C   -2.45767933  -0.02945338   0.02302400 
C   -2.86267556   1.34332434   0.57012148 
H   -3.91330100   1.29227538   0.87110395 
H   -2.78624770   2.11357287  -0.20150635 
H   -2.25573551   1.63911764   1.43167002 
C   -3.46237385  -0.51651035  -1.01858690 
H   -2.47751235  -0.74129140   0.86126632 
H   -4.42349894  -0.64272675  -0.53041789 
H   -3.62108692   0.20399333  -1.82690717 
H   -3.17754100  -1.48164010  -1.45564090 
C   -0.78707457   0.26670280  -1.68781086 
C    0.55078609   0.21577199  -2.20367564 
H   -1.63003057   0.56176147  -2.34400539 
C    1.77464869   0.29075131  -1.64672731 
C    2.80445515  -0.06241040  -2.49817101 
S    0.71341701   0.16520431  -3.92375202 
C    2.39935149  -0.04193686  -3.80398596 
H    1.92812725   0.79755174  -0.69558535 
H    3.83912999  -0.14714330  -2.24244982 
H    3.02608516  -0.05899405  -4.69727788 
H   -1.00420473  -3.37582202   1.41375773 
H    0.00946501  -1.95356188   3.43492853 
H    2.58020626  -1.32192393   2.84979463 
O    1.95565776   2.00458329   0.50980716 
O    0.28115611   1.08183975   1.62080224 
C    1.06968064   2.08094984   1.31929353 
C    0.84359883   3.38885444   2.00402051 
H    0.84829206   4.19351096   1.26268612 
H    1.70007592   3.60005922   2.64154654 
H   -0.05708262   3.50090673   2.61387252 
H    3.02334172  -2.17977743   0.33361171 
H    0.79978239  -3.43602985  -0.57333977 
*
