! EnGrad PBEh-3c
%output 
xyzfile=True 
end 
%scf 
maxiter 250 
end
%output
Print[P_Hirshfeld] = 1
end
% maxcore
4000
*xyz 1 1
Ir   0.50007531  -0.80216268   0.82057540 
C   -0.04423709  -2.85480082   1.38287619 
C    0.50377160  -2.08749070   2.47252823 
C    2.11740482  -2.31067572   0.89588346 
C    0.93425729  -2.93722365   0.37063795 
C    1.87281643  -1.76856424   2.18621895 
N   -1.06083595  -0.09826308  -0.48427821 
C   -2.45198830  -0.03965802   0.02583741 
C   -2.84832029   1.34136533   0.57691679 
H   -3.90825309   1.28410997   0.86295652 
H   -2.78216291   2.11766206  -0.19028357 
H   -2.23792591   1.64809583   1.43039380 
C   -3.45723615  -0.51995026  -1.02426112 
H   -2.47265987  -0.74627110   0.85784867 
H   -4.42291346  -0.64368645  -0.52795727 
H   -3.61906485   0.20444035  -1.82567072 
H   -3.17920164  -1.47841200  -1.46441341 
C   -0.79877047   0.27391358  -1.68452533 
C    0.52425216   0.25119448  -2.21612026 
H   -1.62493600   0.56502336  -2.34696145 
C    1.77972652   0.36006417  -1.68773411 
C    2.83290311  -0.01937272  -2.51249145 
S    0.70878277   0.12228721  -3.89585193 
C    2.39316793  -0.07219945  -3.79584242 
H    1.82167155   0.66359561  -0.60543147 
H    3.84838502  -0.15529536  -2.22881602 
H    3.00833151  -0.05919557  -4.67878777 
H   -1.04836072  -3.30433906   1.37498867 
H   -0.00417625  -1.91889780   3.41299462 
H    2.57653247  -1.28332081   2.85279182 
O    1.98746932   2.03138081   0.50907959 
O    0.31804044   1.05495329   1.58634609 
C    1.09012816   2.09322763   1.30725074 
C    0.83169383   3.38829116   2.01175169 
H    0.84227248   4.17314851   1.26923692 
H    1.69357372   3.59148604   2.63717849 
H   -0.05454424   3.48492823   2.60583972 
H    3.02632478  -2.13701486   0.31814108 
H    0.80922573  -3.41442562  -0.59765495 
*
