! EnGrad PBEh-3c
%output 
xyzfile=True 
end 
%scf 
maxiter 250 
end
%output
Print[P_Hirshfeld] = 1
end
% maxcore
4000
*xyz 1 1
Ir   0.51296033  -0.77744905   0.79333517 
C   -0.04875640  -2.85257798   1.38910347 
C    0.50253018  -2.08788939   2.48362704 
C    2.10654223  -2.29901417   0.88153112 
C    0.91747561  -2.91175427   0.36521687 
C    1.85242008  -1.76745887   2.17886837 
N   -1.05832367  -0.08420119  -0.48791192 
C   -2.45623572  -0.03204194   0.02373766 
C   -2.85903414   1.34282741   0.57184521 
H   -3.91202052   1.29020410   0.86903724 
H   -2.78521153   2.11461015  -0.19865953 
H   -2.25121784   1.64139509   1.43134629 
C   -3.46107060  -0.51738293  -1.02002625 
H   -2.47628145  -0.74255458   0.86039938 
H   -4.42335043  -0.64297019  -0.52979372 
H   -3.62057399   0.20410672  -1.82659353 
H   -3.17796225  -1.48082124  -1.45786617 
C   -0.79004141   0.26853192  -1.68697744 
C    0.54405537   0.22475743  -2.20683240 
H   -1.62873825   0.56258890  -2.34475524 
C    1.77593675   0.30833353  -1.65712928 
C    2.81167139  -0.05149326  -2.50180360 
S    0.71224147   0.15431776  -3.91667475 
C    2.39778294  -0.04961341  -3.80192024 
H    1.90112320   0.76357181  -0.67271650 
H    3.84147766  -0.14921119  -2.23899141 
H    3.02158168  -0.05904517  -4.69258759 
H   -1.01540554  -3.35768932   1.40392339 
H    0.00600470  -1.94476883   3.42936467 
H    2.57927435  -1.31213169   2.85055491 
O    1.96372723   2.01138087   0.50962260 
O    0.29051236   1.07501960   1.61206194 
C    1.07486745   2.08406428   1.31623870 
C    0.84057895   3.38871156   2.00598164 
H    0.84676510   4.18834573   1.26434783 
H    1.69842654   3.59788451   2.64043852 
H   -0.05643872   3.49685355   2.61183488 
H    3.02409842  -2.16893008   0.32968736 
H    0.80217783  -3.43054962  -0.57950767 
*
