! EnGrad PBEh-3c
%output 
xyzfile=True 
end 
%scf 
maxiter 250 
end
%output
Print[P_Hirshfeld] = 1
end
% maxcore
4000
*xyz -1 1
Pt  -1.07134522  -0.92122528   0.56673757 
Cl  -0.28472867  -0.67480348   2.75833745 
Cl  -2.73866078  -2.37604171   1.17623836 
Cl  -1.73251479  -1.03484078  -1.67347838 
C    1.10093215   1.03933770  -0.61339493 
H    1.45462983   1.96439983  -0.15945586 
H    1.32580825   0.08421357   0.40724950 
H    1.80284591   0.69101863  -1.36599384 
H    0.14303331   1.22793498  -1.09623292 
*
