! EnGrad PBEh-3c
%output 
xyzfile=True 
end 
%scf 
maxiter 250 
end
%output
Print[P_Hirshfeld] = 1
end
% maxcore
4000
*xyz -1 1
Pt  -1.07518433  -0.93905754   0.56709942 
Cl  -0.28083614  -0.64145949   2.72887741 
Cl  -2.69437277  -2.31214548   1.16524702 
Cl  -1.68292583  -1.04555840  -1.66790351 
C    1.16911678   0.89679026  -0.44448471 
H    1.45711435   1.92637783  -0.12357330 
H    1.23197531   0.18907897   0.19705514 
H    1.76659200   0.70735040  -1.38356217 
H    0.10606851   1.21899801  -1.03912937 
*
