! EnGrad PBEh-3c
%output 
xyzfile=True 
end 
%scf 
maxiter 250 
end
%output
Print[P_Hirshfeld] = 1
end
% maxcore
4000
*xyz -1 1
Pt  -1.07288820  -0.92839227   0.56688300 
Cl  -0.28316422  -0.66140214   2.74649711 
Cl  -2.72086091  -2.35036107   1.17182081 
Cl  -1.71258441  -1.03914832  -1.67123778 
C    1.12833635   0.98204623  -0.54550794 
H    1.45562839   1.94911835  -0.14503424 
H    1.28809570   0.12636019   0.32276993 
H    1.78827504   0.69758256  -1.37305476 
H    0.12817673   1.22434310  -1.07328234 
*
