! EnGrad PBEh-3c
%output 
xyzfile=True 
end 
%scf 
maxiter 250 
end
%output
Print[P_Hirshfeld] = 1
end
% maxcore
4000
*xyz -1 1
Pt  -1.07356676  -0.93396431   0.56506739 
Cl  -0.28078199  -0.64511769   2.73173485 
Cl  -2.70270026  -2.32261116   1.16806640 
Cl  -1.68890341  -1.04444012  -1.66869832 
C    1.13284919   0.93214657  -0.49661721 
H    1.45846970   1.92417998  -0.12481374 
H    1.24317316   0.17921545   0.22441487 
H    1.77049968   0.70391799  -1.37435029 
H    0.13835751   1.20700869  -1.02517381 
*
