! EnGrad PBEh-3c
%output 
xyzfile=True 
end 
%scf 
maxiter 250 
end
%output
Print[P_Hirshfeld] = 1
end
% maxcore
4000
*xyz -1 1
Pt  -1.07020962  -0.93277343   0.55962540 
Cl  -0.27793362  -0.62758769   2.70836190 
Cl  -2.69581432  -2.30273638   1.17169711 
Cl  -1.66204974  -1.04808796  -1.66493320 
C    1.12834853   0.99019079  -0.55884291 
H    1.47091374   1.88979230  -0.08805333 
H    1.18359641   0.17554592   0.18033201 
H    1.75884495   0.70404987  -1.36908025 
H    0.15718278   1.15261517  -0.93987209 
*
