! EnGrad PBEh-3c
%output 
xyzfile=True 
end 
%scf 
maxiter 250 
end
%output
Print[P_Hirshfeld] = 1
end
% maxcore
4000
*xyz -1 1
Pt  -1.20740105  -1.00104272   0.61628192 
Cl  -0.30309207  -0.80834748   2.73860366 
Cl  -2.74818052  -2.48008770   1.18118734 
Cl  -1.87749852  -0.93342632  -1.59573568 
C    1.23901067   0.96809436  -0.45016191 
H    1.44782025   2.07669847  -0.33807085 
H    1.24371139   0.48405112   0.25577106 
H    1.96444247   0.65166237  -1.27325272 
H    0.24038433   1.04081873  -1.13461221 
*
