! EnGrad PBEh-3c
%output 
xyzfile=True 
end 
%scf 
maxiter 250 
end
%output
Print[P_Hirshfeld] = 1
end
% maxcore
4000
*xyz -1 1
Pt  -1.21277101  -1.00446314   0.61550868 
Cl  -0.30442362  -0.80826344   2.72981600 
Cl  -2.74472193  -2.47609706   1.18389806 
Cl  -1.87398554  -0.93353597  -1.59165767 
C    1.22168819   1.00834356  -0.52953562 
H    1.44927845   2.05426043  -0.33083814 
H    1.22818176   0.47902145   0.25885254 
H    1.95442266   0.65593674  -1.25400365 
H    0.28108146   1.02251851  -1.08190084 
*
