! EnGrad PBEh-3c
%output 
xyzfile=True 
end 
%scf 
maxiter 250 
end
%output
Print[P_Hirshfeld] = 1
end
% maxcore
4000
*xyz -1 1
Pt  -1.20678726  -0.99960035   0.61340606 
Cl  -0.30394164  -0.80561217   2.72971154 
Cl  -2.74826224  -2.47731709   1.18599882 
Cl  -1.87109489  -0.93572180  -1.59413393 
C    1.22416559   1.04039825  -0.57602160 
H    1.45083373   2.05547076  -0.32442922 
H    1.22925427   0.44161662   0.30776291 
H    1.95473692   0.65433488  -1.25801929 
H    0.26971092   1.02416670  -1.08403747 
*
