! EnGrad PBEh-3c
%output 
xyzfile=True 
end 
%scf 
maxiter 250 
end
%output
Print[P_Hirshfeld] = 1
end
% maxcore
4000
*xyz -1 1
Pt  -1.20120341  -0.99458678   0.60975762 
Cl  -0.30347018  -0.80222119   2.72449717 
Cl  -2.75308115  -2.47817943   1.19240620 
Cl  -1.86524914  -0.93825013  -1.59662788 
C    1.22119968   1.04589608  -0.58888745 
H    1.45900417   2.06639320  -0.31126537 
H    1.21962325   0.42820248   0.31380878 
H    1.96412962   0.65102223  -1.26986272 
H    0.25687757   1.01886144  -1.07336683 
*
