! EnGrad PBEh-3c
%output 
xyzfile=True 
end 
%scf 
maxiter 250 
end
%output
Print[P_Hirshfeld] = 1
end
% maxcore
4000
*xyz -1 1
Pt  -1.20591178  -0.99706785   0.61545872 
Cl  -0.29658628  -0.81203886   2.73758896 
Cl  -2.75298680  -2.48985440   1.18097323 
Cl  -1.88433499  -0.92492395  -1.59452195 
C    1.22143702   1.04841526  -0.58603095 
H    1.44193634   2.06918156  -0.34230376 
H    1.24566188   0.43176161   0.36579223 
H    1.96609805   0.64417145  -1.25115011 
H    0.26397943   1.02896094  -1.12557439 
*
