! EnGrad PBEh-3c
%output 
xyzfile=True 
end 
%scf 
maxiter 250 
end
%output
Print[P_Hirshfeld] = 1
end
% maxcore
4000
*xyz -1 1
Pt  -1.20537707  -0.99742537   0.61395305 
Cl  -0.29739202  -0.80920954   2.73221011 
Cl  -2.75042520  -2.48440311   1.18298154 
Cl  -1.87833997  -0.92762455  -1.59374050 
C    1.21772539   1.05593705  -0.60391101 
H    1.44578076   2.06533421  -0.33344336 
H    1.23362152   0.42609500   0.35666871 
H    1.96303951   0.64614101  -1.25091184 
H    0.27032175   1.02325381  -1.10341518 
*
