! EnGrad PBEh-3c
%output 
xyzfile=True 
end 
%scf 
maxiter 250 
end
%output
Print[P_Hirshfeld] = 1
end
% maxcore
4000
*xyz -1 1
Pt  -1.20142467  -0.99385677   0.61020601 
Cl  -0.29788538  -0.80655354   2.72295378 
Cl  -2.75356510  -2.48329639   1.19127481 
Cl  -1.87105542  -0.93025164  -1.59459104 
C    1.22250722   1.04843280  -0.59155432 
H    1.45630781   2.07409737  -0.31915318 
H    1.21376381   0.43366616   0.32741915 
H    1.97443687   0.64408596  -1.26244792 
H    0.25481904   1.01068887  -1.08324965 
*
