! EnGrad PBEh-3c
%output 
xyzfile=True 
end 
%scf 
maxiter 250 
end
%output
Print[P_Hirshfeld] = 1
end
% maxcore
4000
*xyz -1 1
Pt  -1.20181974  -0.99394427   0.60984966 
Cl  -0.29739334  -0.80651806   2.72256737 
Cl  -2.75442645  -2.48379725   1.19270463 
Cl  -1.87099632  -0.93012507  -1.59568542 
C    1.22271959   1.04511109  -0.58638157 
H    1.45703873   2.07428198  -0.31898724 
H    1.21383024   0.43703968   0.32367835 
H    1.97534466   0.64448344  -1.26318954 
H    0.25337845   1.01033341  -1.08366189 
*
