! EnGrad PBEh-3c
%output 
xyzfile=True 
end 
%scf 
maxiter 250 
end
%output
Print[P_Hirshfeld] = 1
end
% maxcore
4000
*xyz 1 1
Sc   1.77064323  -1.39538493  -1.40377564 
C    0.41210622  -0.65912208   0.19354641 
N   -0.49092320  -1.37423283   0.92200028 
C   -0.84494069  -0.73865785   2.07958893 
C   -0.17829984   0.44028374   2.09437490 
N    0.56831470   0.47158170   0.95333777 
C    1.46708624   1.59415435   0.56588247 
H    1.67817159   2.20927226   1.44335922 
H    0.99121763   2.19068752  -0.16860566 
H    2.41060909   1.20610031   0.21083395 
C   -1.01781513  -2.68891836   0.56223864 
H   -0.56761333  -3.02847700  -0.36308571 
H   -2.09277399  -2.63128464   0.42870964 
H   -0.78515919  -3.40356934   1.34861274 
H   -1.50100538  -1.15964501   2.80629639 
H   -0.19951721   1.23006104   2.79977897 
C   -0.30689882   1.54086604  -2.90265028 
H   -1.10021843   1.50403109  -3.60247869 
H    0.01952877   2.65251335  -2.90986796 
H   -0.81864340   1.45106616  -1.87336962 
H    0.58629500   0.59015807  -3.18560345 
*
