! EnGrad PBEh-3c
%output 
xyzfile=True 
end 
%scf 
maxiter 250 
end
%output
Print[P_Hirshfeld] = 1
end
% maxcore
4000
*xyz 1 1
Sc   1.76736251  -1.37803732  -1.41178271 
C    0.42593984  -0.65829593   0.21263730 
N   -0.48405000  -1.37319609   0.91748540 
C   -0.84771705  -0.73482973   2.07642810 
C   -0.17658634   0.42969999   2.10398292 
N    0.57234226   0.47878925   0.95029142 
C    1.46522324   1.60049418   0.56941127 
H    1.65811199   2.20315392   1.45200039 
H    0.98597580   2.19606621  -0.18948705 
H    2.41466110   1.20415243   0.21705563 
C   -1.01628788  -2.68635263   0.56209207 
H   -0.56957455  -3.02185543  -0.36949455 
H   -2.09365669  -2.63177315   0.43194096 
H   -0.77906218  -3.40453988   1.34319131 
H   -1.50423214  -1.16620683   2.81200567 
H   -0.18973980   1.23725518   2.81308264 
C   -0.24583519   1.46898230  -2.92762750 
H   -1.09451448   1.50439315  -3.62094670 
H    0.08173912   2.59074839  -2.91770476 
H   -0.77858383   1.44077429  -1.89937196 
H    0.40890804   0.70361621  -3.12697612 
*
