! EnGrad PBEh-3c
%output 
xyzfile=True 
end 
%scf 
maxiter 250 
end
%output
Print[P_Hirshfeld] = 1
end
% maxcore
4000
*xyz 1 1
Sc   1.76639007  -1.37304371  -1.41803970 
C    0.42107339  -0.64994072   0.23976571 
N   -0.47984726  -1.37707351   0.91505928 
C   -0.84746936  -0.73736720   2.07044506 
C   -0.17106375   0.43102596   2.09511734 
N    0.58478350   0.48079632   0.94246639 
C    1.45700631   1.58867808   0.58250086 
H    1.65186081   2.20038524   1.45450081 
H    0.98265018   2.20281679  -0.20194060 
H    2.41639587   1.20344114   0.21675958 
C   -1.01269516  -2.68211467   0.56335973 
H   -0.56965220  -3.02062644  -0.37155251 
H   -2.09430085  -2.63167654   0.43217865 
H   -0.77768455  -3.40522064   1.34193864 
H   -1.50872240  -1.16890977   2.81270437 
H   -0.18666412   1.24182584   2.81939097 
C   -0.26614649   1.50825303  -2.90095211 
H   -1.08811361   1.49481582  -3.63110173 
H    0.10706116   2.53281324  -2.92552921 
H   -0.74626302   1.42523282  -1.93178080 
H    0.36200637   0.73987212  -3.10772560 
*
