! EnGrad PBEh-3c
%output 
xyzfile=True 
end 
%scf 
maxiter 250 
end
%output
Print[P_Hirshfeld] = 1
end
% maxcore
4000
*xyz 1 1
Sc   1.76617755  -1.37365545  -1.41787277 
C    0.42183663  -0.65091570   0.23506730 
N   -0.48160424  -1.37737509   0.91976189 
C   -0.84700959  -0.73790123   2.07170944 
C   -0.17020779   0.43670731   2.09283608 
N    0.58377894   0.47885341   0.94885294 
C    1.45569130   1.58737075   0.57792156 
H    1.65247574   2.20126353   1.45487697 
H    0.98514007   2.20082914  -0.19820379 
H    2.41434059   1.20484543   0.21710130 
C   -1.01193204  -2.68242623   0.56187272 
H   -0.56989136  -3.02093248  -0.37101830 
H   -2.09331929  -2.63112384   0.43216575 
H   -0.77784059  -3.40510512   1.34203680 
H   -1.50836237  -1.16787222   2.81007417 
H   -0.18691771   1.23900451   2.81706608 
C   -0.29865266   1.53942991  -2.89443038 
H   -1.08592379   1.49329579  -3.62942583 
H    0.11084003   2.53013918  -2.92767533 
H   -0.74685125   1.42157007  -1.93000921 
H    0.38886386   0.71810852  -3.11529730 
*
