! EnGrad PBEh-3c
%output 
xyzfile=True 
end 
%scf 
maxiter 250 
end
%output
Print[P_Hirshfeld] = 1
end
% maxcore
4000
*xyz 1 1
Sc   1.76059907  -1.36348694  -1.42611111 
C    0.42692996  -0.65589208   0.23803937 
N   -0.47674505  -1.37731852   0.93414980 
C   -0.84225274  -0.72960789   2.07781798 
C   -0.17409881   0.44818781   2.08838077 
N    0.59280982   0.47114974   0.96412531 
C    1.44781918   1.58356274   0.57553273 
H    1.63976024   2.19812230   1.45457041 
H    0.99236460   2.19493587  -0.19583589 
H    2.40539802   1.21090145   0.22215474 
C   -1.00766437  -2.68118316   0.56051356 
H   -0.57040788  -3.01778223  -0.37507845 
H   -2.08681909  -2.62752317   0.43398733 
H   -0.77454032  -3.40539032   1.33715373 
H   -1.51147585  -1.16544766   2.79810493 
H   -0.18070639   1.23360942   2.81650273 
C   -0.36186059   1.57652722  -2.89333110 
H   -1.09870823   1.48807587  -3.65449450 
H    0.18888040   2.49214356  -2.94871267 
H   -0.73880157   1.39068090  -1.91270503 
H    0.37067295   0.74248306  -3.09961653 
*
