! EnGrad PBEh-3c
%output 
xyzfile=True 
end 
%scf 
maxiter 250 
end
%output
Print[P_Hirshfeld] = 1
end
% maxcore
4000
*xyz 1 1
Sc   1.75448353  -1.35373696  -1.43498673 
C    0.43312072  -0.66220371   0.24571413 
N   -0.46910220  -1.38023548   0.94279299 
C   -0.84170881  -0.72838330   2.08010571 
C   -0.17583080   0.45519052   2.08491409 
N    0.60057459   0.46285650   0.96821433 
C    1.44460154   1.57779124   0.58138943 
H    1.62798632   2.19801588   1.45360649 
H    0.99362443   2.18898856  -0.19476925 
H    2.40018487   1.21627312   0.22582900 
C   -1.00104213  -2.67711457   0.56179861 
H   -0.56995552  -3.01225349  -0.37783637 
H   -2.08111943  -2.62161463   0.43586114 
H   -0.77086442  -3.40866218   1.33288971 
H   -1.51885477  -1.16001483   2.78809940 
H   -0.17482813   1.23619954   2.81979052 
C   -0.37871033   1.58176941  -2.89245500 
H   -1.13329560   1.49276785  -3.68680908 
H    0.26049790   2.47105233  -2.96967799 
H   -0.75030812   1.36975555  -1.88214704 
H    0.35259422   0.76368670  -3.09054899 
*
