! EnGrad PBEh-3c
%output 
xyzfile=True 
end 
%scf 
maxiter 250 
end
%output
Print[P_Hirshfeld] = 1
end
% maxcore
4000
*xyz 1 1
Sc   1.62705551  -1.44155952  -1.57660649 
C    0.50830413  -0.74492076   0.24895767 
N   -0.45120311  -1.41065058   0.91647384 
C   -0.91068376  -0.67507741   1.97116611 
C   -0.23727059   0.49677865   1.95014785 
N    0.63678869   0.42512744   0.90338975 
C    1.53440229   1.50779543   0.54806753 
H    1.95440657   1.96662905   1.44017884 
H    1.00797593   2.26608853  -0.02685974 
H    2.37003358   1.12832900  -0.03588220 
C   -0.96344321  -2.73197987   0.60061631 
H   -0.35172125  -3.19931776  -0.16689516 
H   -1.98659400  -2.66313677   0.23759722 
H   -0.93503400  -3.36070048   1.48750812 
H   -1.66911779  -1.03041030   2.64752984 
H   -0.30742836   1.34808805   2.60525333 
C   -0.39605441   1.63622984  -2.73317093 
H   -0.79849949   1.11205406  -3.60088829 
H   -0.71099122   2.67563333  -2.76645130 
H   -0.78688935   1.18097282  -1.82574646 
H    0.86598479   1.51404531  -2.82439487 
*
