! EnGrad PBEh-3c
%output 
xyzfile=True 
end 
%scf 
maxiter 250 
end
%output
Print[P_Hirshfeld] = 1
end
% maxcore
4000
*xyz 1 1
Sc   1.59516990  -1.41695162  -1.60019283 
C    0.50662729  -0.74034438   0.24570110 
N   -0.45185682  -1.41048866   0.91898951 
C   -0.90653423  -0.68300549   1.98242026 
C   -0.23082620   0.48606535   1.96934797 
N    0.62643999   0.43311762   0.90721665 
C    1.52943797   1.52386715   0.55117895 
H    1.92728735   1.98656107   1.45022856 
H    0.99751212   2.26756703  -0.03154601 
H    2.36880455   1.13726213  -0.01073935 
C   -0.96752202  -2.73078174   0.59493754 
H   -0.37138330  -3.18336960  -0.19163115 
H   -1.99795683  -2.66110161   0.25677198 
H   -0.91602892  -3.36789216   1.47234227 
H   -1.64413689  -1.05124490   2.66875478 
H   -0.29596515   1.33469632   2.62770419 
C   -0.20594151   1.58734545  -2.77688549 
H   -0.81322394   1.10859816  -3.59425655 
H   -0.66953566   2.67151796  -2.79174826 
H   -0.77450582   1.18635960  -1.82684148 
H    0.69422035   1.52223596  -2.82176596 
*
