! EnGrad PBEh-3c
%output 
xyzfile=True 
end 
%scf 
maxiter 250 
end
%output
Print[P_Hirshfeld] = 1
end
% maxcore
4000
*xyz 1 1
Sc   1.58124637  -1.40609312  -1.61013531 
C    0.50277852  -0.73576270   0.24668465 
N   -0.45048010  -1.41048125   0.91936546 
C   -0.90372815  -0.68709126   1.98628833 
C   -0.22713262   0.48225290   1.97739765 
N    0.62470188   0.43540858   0.90816463 
C    1.52352320   1.52849584   0.55528664 
H    1.91414049   1.99588012   1.45539161 
H    0.99318617   2.26911275  -0.03531362 
H    2.37004745   1.14075486  -0.00124721 
C   -0.96879830  -2.72904559   0.59303131 
H   -0.37998905  -3.17618098  -0.20328964 
H   -2.00356376  -2.66002298   0.26538311 
H   -0.90743857  -3.37192479   1.46610563 
H   -1.63481818  -1.06102589   2.67906452 
H   -0.29074551   1.32874215   2.63826606 
C   -0.32439047   1.59217648  -2.77588622 
H   -0.80503484   1.10997928  -3.58583030 
H   -0.63081031   2.64763648  -2.80374240 
H   -0.74768361   1.19476080  -1.84547010 
H    0.76507078   1.51254819  -2.82958152 
*
