! EnGrad PBEh-3c
%output 
xyzfile=True 
end 
%scf 
maxiter 250 
end
%output
Print[P_Hirshfeld] = 1
end
% maxcore
4000
*xyz 1 1
Sc   1.57425879  -1.40006701  -1.61505967 
C    0.49909734  -0.73163504   0.24770972 
N   -0.44930110  -1.41052791   0.91956644 
C   -0.90125997  -0.68944007   1.98814563 
C   -0.22442907   0.48069659   1.98030400 
N    0.62511497   0.43562152   0.90981297 
C    1.51845161   1.52869887   0.55831872 
H    1.90611352   2.00069330   1.45870376 
H    0.99152886   2.27062590  -0.03840432 
H    2.37115660   1.14273423   0.00234983 
C   -0.96880815  -2.72754341   0.59214092 
H   -0.38449026  -3.17224041  -0.20960558 
H   -2.00655054  -2.65918969   0.26999372 
H   -0.90289793  -3.37469095   1.46321497 
H   -1.63129249  -1.06638287   2.68454268 
H   -0.28762653   1.32573612   2.64436983 
C   -0.35980046   1.60565299  -2.76244071 
H   -0.80689323   1.10164139  -3.59582262 
H   -0.60834633   2.63482015  -2.81096846 
H   -0.73184285   1.19712015  -1.85432074 
H    0.77785832   1.50793647  -2.83263912 
*
