! EnGrad PBEh-3c
%output 
xyzfile=True 
end 
%scf 
maxiter 250 
end
%output
Print[P_Hirshfeld] = 1
end
% maxcore
4000
*xyz 1 1
Sc   1.56290489  -1.39018234  -1.62312740 
C    0.49571879  -0.72739148   0.24668606 
N   -0.44876471  -1.41034192   0.92061659 
C   -0.89828434  -0.69290866   1.99280452 
C   -0.22122525   0.47774279   1.98612136 
N    0.62378609   0.43686935   0.91333114 
C    1.51371180   1.53130255   0.56066265 
H    1.89348217   2.00781170   1.46343413 
H    0.98888437   2.27198318  -0.04203772 
H    2.37106536   1.14651283   0.00947329 
C   -0.96933957  -2.72629141   0.59038925 
H   -0.39173739  -3.16591532  -0.21937834 
H   -2.01068193  -2.65781750   0.27745710 
H   -0.89561534  -3.37850628   1.45804400 
H   -1.62422432  -1.07434804   2.69219022 
H   -0.28254229   1.32063170   2.65363919 
C   -0.35731784   1.60069712  -2.76906465 
H   -0.80975002   1.09332688  -3.60342101 
H   -0.58312105   2.63609164  -2.82209823 
H   -0.71785232   1.19549589  -1.85199885 
H    0.76095372   1.50568312  -2.83383893 
*
