! EnGrad PBEh-3c
%output 
xyzfile=True 
end 
%scf 
maxiter 250 
end
%output
Print[P_Hirshfeld] = 1
end
% maxcore
4000
*xyz 1 1
Sc   1.55348374  -1.38005613  -1.62951909 
C    0.49068838  -0.72304133   0.24391511 
N   -0.44877161  -1.40919416   0.92197908 
C   -0.89357319  -0.69654384   1.99975758 
C   -0.21989390   0.47620401   1.99172797 
N    0.62466523   0.43589269   0.91874943 
C    1.50919548   1.53244080   0.56246884 
H    1.87890506   2.01244595   1.46699381 
H    0.98862155   2.27223236  -0.04567984 
H    2.36906409   1.15141920   0.01413968 
C   -0.96930266  -2.72570331   0.58928953 
H   -0.39806239  -3.15965259  -0.22815764 
H   -2.01260736  -2.65553887   0.28476659 
H   -0.88883487  -3.38256510   1.45293329 
H   -1.61960699  -1.08060760   2.69678003 
H   -0.27658698   1.31538496   2.66247476 
C   -0.39356578   1.59305423  -2.78322539 
H   -0.80925130   1.07997692  -3.61679078 
H   -0.56131937   2.66026407  -2.83380747 
H   -0.70494594   1.18524051  -1.83247965 
H    0.78182530   1.49924455  -2.83649741 
*
