! EnGrad PBEh-3c
%output 
xyzfile=True 
end 
%scf 
maxiter 250 
end
%output
Print[P_Hirshfeld] = 1
end
% maxcore
4000
*xyz 1 1
Sc   1.54435234  -1.36891840  -1.63636186 
C    0.48517263  -0.71944349   0.24242615 
N   -0.44947362  -1.40882557   0.92318028 
C   -0.88816039  -0.70005131   2.00626135 
C   -0.21819648   0.47268118   1.99827535 
N    0.62451257   0.43555178   0.92211191 
C    1.50509792   1.53500074   0.56435979 
H    1.86415168   2.01653079   1.46969738 
H    0.98821005   2.27114471  -0.04856474 
H    2.36670629   1.15655193   0.01861367 
C   -0.96910902  -2.72461554   0.58843948 
H   -0.40432364  -3.15301505  -0.23661470 
H   -2.01391121  -2.65305989   0.29228258 
H   -0.88179194  -3.38658275   1.44730254 
H   -1.61549942  -1.08647924   2.70084631 
H   -0.27007087   1.31079142   2.67213874 
C   -0.36980108   1.60083334  -2.77743504 
H   -0.81821923   1.05851603  -3.64188044 
H   -0.54618031   2.67330871  -2.84560147 
H   -0.69643923   1.17788085  -1.82019267 
H    0.76327818   1.49369991  -2.83956897 
*
