! EnGrad PBEh-3c
%output 
xyzfile=True 
end 
%scf 
maxiter 250 
end
%output
Print[P_Hirshfeld] = 1
end
% maxcore
4000
*xyz 1 1
Sc   1.54423419  -1.36599243  -1.63683717 
C    0.48385355  -0.71974871   0.24237537 
N   -0.45034926  -1.40906597   0.92366332 
C   -0.88806883  -0.70294150   2.00800612 
C   -0.21509887   0.47309286   2.00010039 
N    0.62240167   0.43594167   0.92177887 
C    1.50436493   1.53409165   0.56394370 
H    1.86161808   2.01668737   1.47009037 
H    0.98772541   2.26961950  -0.04905072 
H    2.36594075   1.15808201   0.01833034 
C   -0.96843729  -2.72412814   0.58846704 
H   -0.40492379  -3.15126758  -0.23703304 
H   -2.01312498  -2.65210348   0.29366535 
H   -0.88032093  -3.38746542   1.44602361 
H   -1.61638591  -1.08600164   2.69957239 
H   -0.26805517   1.30986364   2.67425453 
C   -0.32582051   1.59108219  -2.78744581 
H   -0.81314737   1.06494060  -3.62915957 
H   -0.55442373   2.67304306  -2.84572081 
H   -0.69945474   1.18184212  -1.82489239 
H    0.72797860   1.49240134  -2.84049430 
*
