! EnGrad PBEh-3c
%output 
xyzfile=True 
end 
%scf 
maxiter 250 
end
%output
Print[P_Hirshfeld] = 1
end
% maxcore
4000
*xyz 1 1
Sc   1.54458224  -1.36408481  -1.63679895 
C    0.48342037  -0.72047497   0.24247953 
N   -0.45104938  -1.40934756   0.92427703 
C   -0.88654241  -0.70237104   2.00818497 
C   -0.21384551   0.47061990   2.00154635 
N    0.62032518   0.43660849   0.92051044 
C    1.50394791   1.53370473   0.56366340 
H    1.86090950   2.01657596   1.47007739 
H    0.98661175   2.26833018  -0.04916398 
H    2.36578031   1.15876468   0.01786652 
C   -0.96815523  -2.72401890   0.58858085 
H   -0.40480554  -3.15017410  -0.23695462 
H   -2.01254710  -2.65154634   0.29430902 
H   -0.87936338  -3.38790982   1.44519981 
H   -1.61807451  -1.08560628   2.69891245 
H   -0.26656715   1.30964933   2.67570960 
C   -0.31183341   1.58784902  -2.79137020 
H   -0.80490870   1.07419978  -3.61238385 
H   -0.56215590   2.66213689  -2.84461396 
H   -0.70011715   1.18929419  -1.83775667 
H    0.71504867   1.49017612  -2.84270256 
*
