! EnGrad PBEh-3c
%output 
xyzfile=True 
end 
%scf 
maxiter 250 
end
%output
Print[P_Hirshfeld] = 1
end
% maxcore
4000
*xyz 1 1
Sc   1.54365875  -1.35660256  -1.63776635 
C    0.48116018  -0.72122020   0.24246805 
N   -0.45179893  -1.40969417   0.92544749 
C   -0.88435586  -0.70416173   2.01171942 
C   -0.20867820   0.46671921   2.00801114 
N    0.61484575   0.43754565   0.91725476 
C    1.50130874   1.53355948   0.56358749 
H    1.85602615   2.01782813   1.47067871 
H    0.98241525   2.26490438  -0.05075568 
H    2.36559800   1.16120468   0.01831648 
C   -0.96788773  -2.72349245   0.58888357 
H   -0.40570610  -3.14552247  -0.23917878 
H   -2.01223207  -2.64977226   0.29777214 
H   -0.87484992  -3.39019380   1.44186255 
H   -1.62081396  -1.08541511   2.69785703 
H   -0.26079413   1.30634494   2.68129520 
C   -0.30761399   1.59016267  -2.79235282 
H   -0.78557300   1.09400048  -3.57500159 
H   -0.57653654   2.62865915  -2.84423593 
H   -0.69800752   1.21011532  -1.87416308 
H    0.71092362   1.47870604  -2.85231978 
*
